19
Coordinates from ORCA-job orca E -2448.912149592559
  Er  -0.71128057764762      1.15251073835421      0.73834602848700
  S   0.36576673500181      0.48743855654439      3.29729063085583
  C   -0.75167835995431      0.44256937328159      4.54786880183524
  N   -1.47072584516684      0.39945571085603      5.45866157207543
  C   3.12333987469798      2.27997543093926     -0.70694838928288
  C   2.59461842477843      0.95925176345485     -0.14975306627031
  O   1.26285325576185      1.03853343805302      0.15553873824726
  H   4.19046382474472      2.21800905389300     -0.94668080084447
  H   2.96930303421687      3.07561523608971      0.02322689160142
  H   2.57256227385337      2.54581222006642     -1.61072145904617
  H   3.19003961593775      0.69281376306309      0.74060303368711
  H   2.78635778998284      0.16503424427126     -0.89287621841736
  N   -0.89178589404432      3.40003405240195      1.05491983645692
  N   -0.86177155932904      4.57867973368664      1.07358247620933
  N   -0.83663793698644      5.72855197673036      1.09610104621307
  O   -1.49514339750988     -1.00881328275389      0.05093309036589
  S   -2.66015421140731     -0.16217864967716     -0.49590681682342
  O   -1.88369613946275      0.91980239562172     -1.28919847853725
  O   -3.07703090746714      0.62540424512333      0.75561308318723
