42
Coordinates from ORCA-job orca E -2380.884002361418
  Pr  0.29292569091901      0.33025421993214     -0.59609858736668
  C   -0.90483603113942     -4.10465246330057     -1.80746692039681
  C   -0.46431033175854     -2.68583919412471     -2.02601479507951
  C   0.19791451243509     -2.36698457352576     -3.24235359571743
  C   0.47519821109186     -1.04543565232926     -3.67506129951478
  O   0.37296704359161     -0.02884496011295     -2.94721775719410
  C   0.92912774695803     -0.82732065218182     -5.09127902876097
  O   -0.63349950200640     -1.87018894306524     -1.09131506423153
  H   -1.13179042742931     -4.61645342594305     -2.73938703021020
  H   -1.76484764274303     -4.12208129455030     -1.14298576327428
  H   -0.08230010902035     -4.63467716227918     -1.31895211374254
  H   0.27274456052685     -3.15175834803541     -3.98098686202422
  H   1.14715954887987     -1.75730412422864     -5.60966495714863
  H   1.80698178936464     -0.18265390747970     -5.08919914780445
  H   0.14050445825680     -0.29752472259577     -5.62716087318346
  O   2.35036664151362     -3.86425990810623     -1.29299138517155
  S   2.52983854383935     -2.57213697731329     -1.88735629782183
  O   2.20763032859061     -1.44105683701605     -1.04064903406515
  O   2.40748045041841      0.94516126055495      4.40875943151797
  C   2.29090723455664      1.79612143875808      0.12108084809997
  N   3.14765967493286      2.46182386057320      0.52852833770579
  C   -2.56996433812100      2.20310308134058     -0.07005308457699
  O   -1.40745960620216      1.46039866747205     -0.29821961641744
  H   -3.43310867221403      1.54444603129489      0.06254060485940
  H   -2.77667376866860      2.86919365365817     -0.91155633904304
  H   -2.46763358627061      2.81579944817729      0.82971193554456
  C   -0.74665362432388      0.43614315756866      5.14142350547262
  O   -0.25456908769277     -0.33064634515512      4.03783820077886
  P   0.61567814485889      0.43019190025924      2.90507678645487
  O   2.15865804485800      0.00933752117472      3.33603579409871
  C   3.37371666516005      1.87107491586719      3.90913788727019
  O   0.49991160456487     -0.71777258199143      1.72433765133052
  C   0.83896654611302     -2.10944969563643      1.96453828790635
  H   -0.01911640131174      0.42671095016166      5.95051271767644
  H   -1.67324687040453     -0.02604852143311      5.46982717780609
  H   -0.94232074551978      1.46823689981891      4.84544169526597
  H   3.53374783022983      2.56042923594275      4.73641660768113
  H   3.00582828236356      2.39377921193644      3.02855899405836
  H   4.29724479181731      1.34814905996998      3.66586115250818
  H   0.38983902495995     -2.67928897887983      1.15704447346955
  H   0.43014286816368     -2.41771888963278      2.92192381940107
  H   1.91939050586145     -2.21995635554398      1.95507364383888
