52
Coordinates from ORCA-job orca E -2178.968284278234
  Pr  0.48469685526556      0.23064525734653      0.07792789341364
  N   2.94966067243022     -0.24185361573667      0.64387644159073
  C   3.52867478607586     -1.26944797814825     -0.26898065279251
  C   2.63972081723018     -2.48901999732429     -0.25381695239813
  N   1.27468525548205     -2.08970317407028     -0.70453003309315
  H   3.44513856096955      0.63474555963855      0.49802897553507
  H   3.17131847263357     -0.49836039452574      1.60314940484256
  H   4.54583489428522     -1.52999969072603      0.02057877357514
  H   3.57262289262493     -0.84129478034787     -1.27106619692321
  H   2.56073293233770     -2.89224837203587      0.75764722082187
  H   3.05164620685212     -3.27498106463024     -0.88556455719798
  H   -0.48175980889739     -0.46097488468384     -3.21101319533617
  H   1.29898710808595     -1.97806458494157     -1.71786977108108
  C   -3.31443625862692      3.20998356764691      0.67538112911611
  C   -2.66895791072731      2.00862655380713      0.03687507121534
  O   -1.23592226341851      1.93772356297828      0.39538331276295
  H   -4.36708358500911      3.24359453352385      0.39649372037851
  H   -2.86007884831932      4.13654301648715      0.32149897310170
  H   -3.25552084881080      3.17235058500228      1.76232509888797
  H   -2.73327344516891      2.04348507474600     -1.04905204604148
  H   -3.10170050800521      1.07471113859881      0.39000203019881
  H   -0.90475530592877      2.84940689897954      0.38499715101575
  C   -0.77127992306319     -2.69450791946636      2.46082294612521
  P   -0.43858063323279     -0.92665640958520      2.48055743888973
  C   0.91820039481996     -0.61379524450583      3.62898768551218
  C   -1.89120537451316     -0.03446910784271      3.05762485912869
  H   -1.02386504968208     -2.99482082470623      3.48197896767205
  H   0.11108465409439     -3.25225370129989      2.14978276696120
  H   -1.61311897483999     -2.93167457289247      1.81340078136105
  H   0.55903626275926     -0.82500844993397      4.63997503585016
  H   1.24341113698002      0.42517976506375      3.59146475040527
  H   1.75652575681323     -1.27834715776225      3.42406781417837
  H   -2.08735437071098     -0.34581461113256      4.08727732621841
  H   -2.76419590052082     -0.27413859659970      2.45298111945264
  H   -1.71374688965657      1.03963302994027      3.03820603276221
  C   -1.44313449761073     -0.33795277699903     -2.71977837370003
  C   -2.51374652686851     -1.31159025420387     -3.16262797293108
  C   -3.35929247447251     -1.48754695677122     -1.90190824784256
  C   -2.30118777126656     -1.55112336725123     -0.82120349545886
  O   -1.24184019770373     -0.63274465384945     -1.26647969656769
  H   -1.75964581691087      0.70054682368515     -2.78628560072254
  H   0.63262949518324     -2.86463518264492     -0.55804324370795
  H   -2.07599409023435     -2.26090546166665     -3.47035059596285
  H   -3.08592614181161     -0.91824615162092     -3.99914355348203
  H   -3.96889621701576     -2.38768376308454     -1.92069559004392
  H   -4.01735987367171     -0.63255963608847     -1.74705826623108
  H   -1.86850005518033     -2.55039529369362     -0.74054472636208
  H   -2.64691467480212     -1.21245909965811      0.15652636872492
  O   1.17344228235586      1.02240928754784     -1.25432960336747
  S   1.54930566381203      3.62730350299408      1.58202804900805
  O   0.46390002203226      4.27035756540005      0.92660306441015
  O   1.51031911355777      2.16733200704385      1.53079216812722
