31
Coordinates from ORCA-job orca E -2005.167178358346
  Gd  -0.09393095131061     -0.32016243808211      0.03496852952270
  C   3.05283177315861     -3.05703934929647      2.12250752753535
  C   1.95555935858439     -2.02265147256877      2.05048604490351
  C   1.52961346322409     -1.39689726300878      3.23810233999598
  C   0.53579757094416     -0.41918754771531      3.28026637513195
  O   -0.09942006368370      0.02307125784577      2.27844738687237
  C   0.15645718289318      0.19336818840386      4.60513527771233
  O   1.49348942720119     -1.78854635030319      0.91002593840885
  H   3.39838985853844     -3.23233179652954      3.13884977031259
  H   3.88519884450057     -2.71858129763480      1.50535878860065
  H   2.68268032892426     -3.98780309729591      1.69297519311800
  H   2.00196526175118     -1.68525398192598      4.16488897736271
  H   0.72276650266401     -0.22216539730243      5.43560747153638
  H   -0.90946069868130      0.03646859851973      4.77012601112948
  H   0.32043729962542      1.26952710802979      4.54968197324025
  C   -1.00349543161543      0.49583199285598     -5.22136246563398
  C   0.07172378915690      1.10978735168261     -4.60253919742313
  C   0.36591514140477      0.77902527652850     -3.28982494666786
  N   -0.34287851706718     -0.11424315400824     -2.59378185423912
  C   -1.38010913679919     -0.70406269464614     -3.19591891163906
  C   -1.74264323442995     -0.42935733415589     -4.50371971340575
  H   -1.26377847518719      0.73699431538536     -6.24401186190784
  H   0.67777225028205      1.84207470247463     -5.11649879605363
  H   1.19150594320498      1.23811038061431     -2.76409263329986
  H   -1.92619802832234     -1.41909889159201     -2.59485381759144
  H   -2.59425849254251     -0.93244534101141     -4.93900234922221
  Cl  -1.54187120532016     -2.47280778459056     -0.30438514769789
  C   2.90767959880941      1.38614401980181     -0.74161541399250
  N   1.88865036226994      0.85241489102702     -0.53750603539125
  C   -2.50057090250586      2.21264013101551     -0.31229118293246
  N   -1.70341881967218      1.38167697748269     -0.11362327828510
