6
Coordinates from ORCA-job orca E -5369.438008342576
  Am  0.09574272609064      0.75081423074368     -0.01123076229298
  H   0.77068219638254      1.26426480372098      1.73214728044138
  C   -0.47845595805395     -0.16497380703265     -1.68018154270921
  As  0.12546852127065     -1.86552051422564     -1.32613444360396
  Se  1.18250998622974     -1.51000142343397      0.79706461536102
  F   -1.69593747191962      1.52541671022763      0.48834485280375
