27
Coordinates from ORCA-job orca E -4323.240012218176
  Gd  0.22210033581541      1.15590160253924      1.28032171620873
  N   -1.36968584293608      0.18213323684134      5.28985851326752
  N   -0.97135765367159      0.33268429870538      4.25215073654587
  N   -0.54217550131812      0.48022855713111      3.12611983532166
  C   4.77982491027414      0.66221705812535     -1.46239938754828
  O   3.49553041837468      0.73020397908100     -0.79915732202506
  P   3.16470491817732     -0.20277652049690      0.45398285236374
  O   1.56313408328468     -0.54599327686918      0.11307891047403
  C   1.30497559700781     -1.59980146855867     -0.84595603865586
  O   2.59903544135485      0.92770158698793      1.53655829308713
  C   3.55982242729490      1.84116150420463      2.13445796419123
  H   5.27762099642997      1.61835191231319     -1.33448312095614
  H   4.59931503035824      0.47619395234065     -2.51609592736057
  H   5.39249119279727     -0.13566706385459     -1.04404046454073
  H   0.26890095637794     -1.89857266313043     -0.72565228319529
  H   1.95230898784022     -2.45061739074052     -0.64082302785805
  H   1.47616758301577     -1.22488804600963     -1.85200564604742
  H   3.09044360434627      2.26223943667478      3.01655987282114
  H   3.79209248535615      2.62814397233959      1.42266506493571
  H   4.45340814657258      1.28890507373481      2.42057189745379
  C   -3.87134183993428      0.98816305814555     -1.58811538790136
  C   -2.62205039516476      0.85316400330454     -0.86412794541044
  N   -1.63735595424683      0.75070596711120     -0.28711275734828
  H   -4.03320997033626      2.03760514484227     -1.82701016728709
  H   -4.68748574896668      0.62484731391771     -0.96672403741806
  H   -3.82416138694499      0.40738238943645     -2.50699831258244
  Br  0.42934278835147      3.76269105516664      1.05380224301874
