4
Coordinates from ORCA-job orca E -1483.264126713643
  Ac  0.39437574994071      0.76666249061421      2.01903441763766
  K   -0.20315337166350     -0.27414844429315     -2.89881817442391
  Te  -1.46125790694559      1.24554284727706     -0.28948663488190
  Sb  1.86652552866838     -0.91616689359812     -0.26732960833185
