33
Coordinates from ORCA-job orca E -1811.634602349734
  Tb  0.37978977580793     -0.41717777868166      0.52983518541018
  N   1.39804865894937      1.91118529977844      0.45967233633450
  C   0.32567114220025      2.80846700667719     -0.03850477520167
  C   -0.09778823094626      2.34965107885770     -1.42080305879011
  N   -0.62095761182840      0.97148491425023     -1.37205143072821
  C   -2.09279118290197      0.90976103881123     -1.26263995303507
  C   -2.53716297613787     -0.53831896663078     -1.19336535267464
  N   -1.98811107064256     -1.17471338232248      0.02594316122140
  H   1.64036361684608      2.16831855539853      1.41174660091804
  H   2.23700928804662      2.05778057173295     -0.09405662898601
  H   0.64687224087894      3.85031669059063     -0.06490980006166
  H   -0.51116107445698      2.74141935131073      0.65992776598078
  H   0.76409221912452      2.36565872457854     -2.09088263723653
  H   -0.83572765343384      3.04061191624748     -1.83469606762545
  H   -0.36601122139635      0.49313730443216     -2.24053062900298
  H   -2.56833685790737      1.40367272350520     -2.11410080164024
  H   -2.40250394281479      1.44514690522425     -0.36039126477543
  H   -2.14824310771075     -1.07586163339808     -2.05883197115414
  H   -3.62541538621189     -0.59600553249468     -1.22781056267843
  H   -2.02608995299952     -2.18401450000622     -0.07246623737998
  H   -2.56385605823055     -0.94400964795571      0.82991601878135
  C   -0.79592791136982     -0.05173957713334      3.71829932900314
  O   -0.28252320187508     -0.08330828731114      2.41090868700737
  H   -0.78358320297085      0.96593874820625      4.11363576525862
  H   -0.20458260872541     -0.68219291683553      4.38537905066415
  H   -1.82773324570131     -0.41107321441178      3.74324408057337
  S   0.38034532028790     -1.35896287815302     -3.74544284287481
  C   0.62647287810980     -1.81792642501962     -2.22089216285037
  N   0.77817952835807     -2.09194251944954     -1.07982221457120
  N   2.65107837798330     -1.38526714859333      1.20224144760853
  H   2.74457434956299     -2.19181265793594      0.58963839917515
  H   2.67107229374521     -1.73132082779031      2.15672737864785
  H   3.49893680836054     -0.84010293547843      1.08568318468245
