5
Coordinates from ORCA-job orca E -6030.793135785226
  Gd  -0.01824419345993     -0.98262441743619      0.23686206506406
  Si  2.31566735253636      1.04805318203518     -0.19767712215467
  Br  1.00745080708392     -3.60603231748438      0.79101687579124
  H   -0.80066156212688     -0.99266409169778     -1.67682179526020
  Se  -1.80972240403346     -0.11377235541682      1.91867997655956
