4
Coordinates from ORCA-job orca E -442.870847645236
  Pa  0.01999793587001      0.02193477711602     -0.03806436016022
  H   -0.72878372843770     -1.04787339440226     -1.58299346536806
  H   -0.73131832800454      1.89476633897505      0.08869709851118
  H   2.03659412057223     -0.04693772168881      0.09576072701710
