37
Coordinates from ORCA-job orca E -1976.373234180565
  Lu  0.06230131578829     -0.43998259613755      0.08897147638380
  N   1.38384836308012      1.57371856478768      0.33435797470508
  C   1.01642162867357      2.62668638408085     -0.65531288037273
  C   -0.45532797586087      2.51029194374951     -1.00156206451728
  N   -0.71433395220361      1.17097504162489     -1.59458985871349
  C   -2.13711792716512      0.95545705171579     -1.97393616475131
  C   -2.92793464239863      0.39698308624913     -0.80763410457694
  N   -2.27230626645250     -0.85267665125414     -0.33049747214071
  H   1.20358763716809      1.93023288647119      1.27074431566767
  H   2.38951040158360      1.42127307502664      0.31698908324817
  H   1.62170681041400      2.47716228361073     -1.55026334475243
  H   1.24040224861738      3.62355256682703     -0.27984214478977
  H   -0.74837596554961      3.30554407117431     -1.68899728858513
  H   -1.06779516898379      2.61923736167176     -0.10215218702659
  H   -0.17040171969195      1.13164922726116     -2.45212656987749
  H   -2.15754378329984      0.24536164371872     -2.80205248895973
  H   -2.59287015979114      1.88005544853844     -2.33126231431296
  H   -3.96082263929500      0.22361905168512     -1.10669013564549
  H   -2.94818915512864      1.10640118463802      0.02160854560096
  H   -2.40619899493605     -1.58354042782184     -1.02838719509612
  H   -2.75896883514342     -1.20910148359923      0.48912975582978
  N   1.43012957366609     -1.45615203958929     -1.64679349763505
  H   1.66678301598347     -0.98070486012575     -2.51359613419899
  H   1.04151404851905     -2.35537745851861     -1.92798252392849
  H   2.32455026399318     -1.69278993524863     -1.21762440496243
  C   -2.16701776132172     -1.25897262667018      3.55626731708796
  C   -1.86957397446892      0.09163787782768      2.95936304469801
  O   -0.59234126731445      0.07331058634571      2.21995554803499
  H   -3.12415754684551     -1.22245568749019      4.07524073014436
  H   -1.41030688964577     -1.54100659049364      4.28857204646629
  H   -2.21582819482883     -2.03939923923360      2.79605007230493
  H   -1.79171239453729      0.87176005838894      3.71307770646019
  H   -2.61305107780649      0.40511745278546      2.22927153769129
  H   0.10370023021137     -0.16391482912644      2.84856198361598
  N   1.15216462265348     -2.54271303578580      1.42637968904461
  O   0.10670521519019     -2.60821765949720      0.72617151850963
  O   1.67375091712738     -1.39012172758675      1.38159042934936
