42
Coordinates from ORCA-job orca E -1730.066609162542
  La  -0.16048448669827     -0.11709032272911      0.69163925027785
  Cl  -0.84256929427953      1.07889353678872      2.96310702071115
  C   -4.74278998724430     -1.54914676450504      1.83609396633804
  C   -3.47700388784157     -0.98210622176951      1.80003399400786
  N   -2.64399378248145     -1.21741972544975      0.78048046403531
  C   -3.08950510180009     -2.02251139844452     -0.19031798686908
  C   -4.35777649782714     -2.57749147043599     -0.13752646199955
  N   -5.18888258220931     -2.34326301086037      0.87145328235004
  H   -5.40685379593731     -1.35265689515283      2.66746228738184
  H   -3.12303312397488     -0.33404491932273      2.59048783136610
  H   -2.42118434354289     -2.22655878789100     -1.01564649216794
  H   -4.70630905994865     -3.22747380377137     -0.92931658294712
  C   -2.29185971932686      2.33856326735102     -0.54040293468214
  C   -2.71685255352236      3.02834060005326     -1.82234457074392
  C   -2.47935825689956      1.94364680677251     -2.87205710022112
  C   -1.17308606131886      1.33397403872849     -2.40716525381200
  O   -1.23178276469396      1.40801323324409     -0.94677252629088
  H   -3.09976176495688      1.74808492518249     -0.10649331761252
  H   -1.88178262001212      3.00335068008837      0.21594036374781
  H   -2.08517212421059      3.89480304696992     -2.01699367419570
  H   -3.75048798024109      3.36147832033663     -1.77586154965408
  H   -2.40663237004238      2.33582093011985     -3.88328608578507
  H   -3.27755092124254      1.20118154881204     -2.84640091696776
  H   -0.31322782164826      1.91921762743383     -2.73360529028195
  H   -1.03391659448469      0.29106252540672     -2.68167044905366
  C   4.83451069660250      0.69471288612262      0.46137029918218
  P   3.56872953729733     -0.54071772508698      0.20845651281473
  O   2.18163398399457      0.08409837919930      0.35593802706055
  C   3.81261856953739     -1.84882535412140      1.40177048570457
  C   3.78561326176682     -1.23958169446730     -1.42257570044780
  H   5.82559948467646      0.25324308238834      0.36395800929895
  H   4.72726361941264      1.12108423834430      1.45777354112775
  H   4.72005284242909      1.48727763703567     -0.27659309074632
  H   4.79888673059632     -2.29591378620162      1.28199957628312
  H   3.04861845829616     -2.61223016236589      1.25410123652738
  H   3.72624978316320     -1.44304377512319      2.40932361579264
  H   4.78651284280220     -1.65733454720520     -1.52636438913417
  H   3.64266082884204     -0.46288696971574     -2.17268091009418
  H   3.05104889064807     -2.02897877737327     -1.58090373429010
  N   0.53222667321598     -2.61204825381319     -0.81636447897470
  O   -0.11785605490680     -1.69486939901233     -1.37178729338189
  O   0.54428734801166     -2.52375354555984      0.44004102634583
