6
Coordinates from ORCA-job orca E -1706.174189313870
  Ac  0.45863604987016      0.27266262252702      0.09715903943161
  K   1.93605569373189     -0.33203059131454      4.36204088745342
  In  -0.63849421234492     -0.07894466775208     -3.14243140943759
  C   -1.50230931829839     -0.38432569650517     -1.10220945318026
  P   2.66397322604059     -1.09541756844644      1.32332208318458
  Na  -2.91785143899932      1.61805590149122     -1.53787114745177
