46
Coordinates from ORCA-job orca E -2767.262625105803
  Er  -0.63697813996283     -0.71270988849103     -0.62858930805207
  C   -3.80355028689976      5.09640193451378      1.52962449372183
  C   -2.44533248512989      5.12115075851725      1.24073673867223
  C   -1.80770821466350      3.96778139885945      0.80940738479417
  C   -2.52866527382597      2.78905880407832      0.66642264836292
  C   -3.88735279396267      2.76422316523359      0.95563155951830
  C   -4.52420150601700      3.91770363132261      1.38722155942011
  C   -1.84176517204059      1.54144900046324      0.19987852475746
  O   -0.60420417388904      1.57749087880668     -0.05554273912837
  O   -2.51543251925960      0.48265251962911      0.07304887514460
  H   -4.30125637328860      5.99700020427349      1.86646901274906
  H   -1.88447422258083      6.04006768576022      1.35236322197875
  H   -0.75172116750312      3.95748370443999      0.57801748325258
  H   -4.42284492688351      1.83279268033093      0.83544634344768
  H   -5.58252820920559      3.89922354137391      1.61289390021558
  C   3.36678002516274     -1.39463965117411      5.02898710685132
  C   1.98517429648256     -1.38566738099729      5.17080340701359
  C   1.17443340749979     -1.28655867390642      4.05046583758355
  C   1.74583051236094     -1.19708637667859      2.78732801695180
  C   3.12782558472689     -1.20673908774238      2.64516211546205
  C   3.93785008633566     -1.30518137012646      3.76618398996883
  C   0.86926443656608     -1.08346546029910      1.57767752658124
  O   -0.38130199588033     -1.05509968001973      1.71690192456289
  O   1.40788451277209     -1.00826628824823      0.43361473071244
  H   3.99958135654667     -1.47154249056972      5.90408598702834
  H   1.54136023136166     -1.45593028038254      6.15531290267200
  H   0.09631347459280     -1.27605170312198      4.13055089240970
  H   3.54430419308584     -1.13503590207319      1.65009182652077
  H   5.01460776076558     -1.31220678029113      3.65683110480604
  S   -2.35409288716293     -5.44402722697868     -1.29811995608815
  C   -1.81792643444857     -3.93370070917796     -1.08724615786441
  N   -1.42748657996907     -2.83655426041203     -0.93444066737762
  C   0.35224827970339      0.54080831888808     -7.40464128497988
  C   1.40898802959238      0.11767136174820     -6.60901392903012
  C   1.20735834812761     -0.11826005995839     -5.25761618535735
  C   -0.05193822070584      0.06992505935686     -4.70195780152154
  C   -1.10927077051422      0.49308106008369     -5.49774163677328
  C   -0.90673428657174      0.72823748066839     -6.84889954881123
  C   -0.27400128488680     -0.18683624593572     -3.24351616366631
  O   -1.41943353827274     -0.00876953864287     -2.75004399921195
  O   0.69584268626204     -0.57920107328371     -2.53029801043613
  H   0.50961614919682      0.72313830567132     -8.46019615589350
  H   2.38904935885721     -0.02987724999293     -7.04365352698569
  H   2.01075269599976     -0.45053322075875     -4.61499490535141
  H   -2.07856147060168      0.62850392759643     -5.03860746146619
  H   -1.72993687660412      1.05583631574448     -7.47041925148540
