31
Coordinates from ORCA-job orca E -4370.094682579424
  Dy  0.12393408116994      0.06365238543336     -0.06188864711441
  N   -0.55961128097342      0.25132043036952      2.41208095098384
  H   0.15941457397810      0.26468348595966      3.12909361970685
  H   -1.20364783686640     -0.49124222242757      2.67002022960289
  H   -1.08673759332707      1.11399349831734      2.51615708365073
  Br  2.76249611740939     -0.10660695428472     -0.56805762320512
  C   0.34516970328577     -1.39721426733230     -3.72068170587493
  P   -0.18927920768518      0.16469737823965     -2.95361449666271
  C   -1.87397010070043      0.41440336493858     -3.58980304185480
  C   0.80942319328143      1.42133313763002     -3.80726909134925
  H   0.25505077331216     -1.34498932134898     -4.80585343368303
  H   -0.27407487464685     -2.21883608838863     -3.36045444905114
  H   1.38446694858398     -1.59419746850473     -3.45923004731537
  H   -1.88124757017026      0.40540167737375     -4.67974166929757
  H   -2.26635330399533      1.36866965794336     -3.23960101518344
  H   -2.52719907783291     -0.37910040739935     -3.22726289505529
  H   0.70702760804063      1.32496775327275     -4.88828022137524
  H   1.85629391737267      1.29829834895722     -3.53236933638493
  H   0.48286622820943      2.41898197244772     -3.51445328545569
  N   -2.65633343016140      0.26930109841710     -0.36045114733466
  O   -3.81925912670985      0.37429816488470     -0.57188321088877
  O   -2.05552172215134     -0.86247787866230     -0.29981432260066
  O   -1.88653866725453      1.28306968377515     -0.18282571405788
  N   0.75232627501008      2.50632542595889      0.28127801605034
  H   -0.02667130672960      3.15799451139473      0.28813785877196
  H   1.34285074955670      2.75134365133882     -0.50934285869889
  H   1.32134302765377      2.70769325421934      1.09774441813744
  N   0.32235037763398     -2.38611985255739      0.33299865979105
  H   0.78479657029409     -2.65059111572821      1.19780869756850
  H   0.91080406701626     -2.76633890947867     -0.40414707892543
  H   -0.56486911260370     -2.88011439475885      0.30140575710597
