57
Coordinates from ORCA-job orca E -1926.860075562350
  Ce         -0.27134042945203     -0.06849859518356      0.00707763241685
  C           4.14078190244880      0.11110497543613      1.52868858508702
  C           3.05455286011860      0.14071554753594      0.49980007208374
  C           3.37950075288703      0.15227755021007     -0.86454373966172
  C           2.46240727908018      0.30999393780976     -1.91203821522590
  O           1.18662680467896      0.39388307217128     -1.74181580427600
  C           2.95126312509083      0.41662438988959     -3.32377541984834
  O           1.84448153624126      0.17459297303165      0.94107995294634
  H           5.12672736060576     -0.06365842355695      1.09676527657209
  H           3.92387246022496     -0.65497370480212      2.28012704546982
  H           4.15865962323758      1.07394874698981      2.05484544405266
  H           4.42999774113491      0.10999351363204     -1.12618027857529
  H           4.02447665315438      0.24638918532225     -3.41503305177046
  H           2.72218238125666      1.41879683530219     -3.70656576833348
  H           2.41269001261774     -0.29598275086674     -3.95789134032320
  N          -1.94022541837413     -1.98424106148643     -0.94107361096084
  C          -1.38059077925296     -3.36445520134444     -0.87347620546706
  C           0.08047584847590     -3.35174826477795     -1.28615812267671
  N           0.85183601538154     -2.46383444069498     -0.37959195317836
  H          -2.88784640446558     -1.98549332192974     -0.56904761781760
  H          -2.05909867256239     -1.72589910293085     -1.92029161148787
  H          -1.93606957362083     -4.06920186708903     -1.50580854612498
  H          -1.47186949945630     -3.71826086854215      0.16154723814323
  H           0.17890635120100     -2.96166260709238     -2.30813132940676
  H           0.46537201891962     -4.38009508848305     -1.29783165094476
  H           1.79713304297585     -2.33537263637886     -0.73741222304255
  H           0.96549219765381     -2.92217154151444      0.52318933861492
  C          -0.65576442020015      3.55420164681184     -2.25029538463610
  P          -1.81144620453194      2.19003529287275     -2.52177133875737
  O          -1.74456505881724      1.16840632709638     -1.36202987126106
  C          -1.38240958251028      1.41352722543587     -4.09717390367204
  C          -3.47365010864357      2.88111936584250     -2.66843667213193
  H          -0.89590620783929      4.06041093277522     -1.30948620180795
  H          -0.71427109716060      4.28176078218977     -3.06636672850788
  H           0.36355600833320      3.15761259560206     -2.19765705995474
  H          -1.39206252428104      2.14995925285474     -4.90736605369249
  H          -2.10486380519387      0.62582036174339     -4.33390258193535
  H          -0.38088563448425      0.97865352705024     -4.01545377941237
  H          -3.74268626850249      3.40490590561716     -1.74587604712782
  H          -4.19489345397569      2.07696925371665     -2.84474116455759
  H          -3.52077561364837      3.58865706402278     -3.50281589696918
  C          -0.09621053957982      3.68818048868115      3.17453585774033
  C           0.22826288281508      2.61434018783227      2.34886568782412
  N          -0.71792838575005      1.97133835022698      1.64739911287401
  C          -1.98114115377271      2.40702617115258      1.78383138409714
  C          -2.28980207389440      3.47402232108387      2.62028844858295
  N          -1.35011401621516      4.11915846031252      3.31420233516311
  H           0.67694568611365      4.21000691304513      3.73554208303545
  H           1.25068325320934      2.25864332204098      2.24432765325595
  H          -2.75485702967692      1.89958545558622      1.20877636156374
  H          -3.31728866103473      3.81624926873254      2.73113531623805
  C          -0.20183384847722     -0.98179258353810      3.48179480760166
  O          -0.89512066349223     -1.26994637313147      2.22833815286383
  H           0.00352953667885     -1.91179157069016      4.01845874743715
  H          -0.80325942126881     -0.30985752703972      4.10095708785566
  H           0.73861181162861     -0.49975968040551      3.21026816673803
  H          -1.70147326322907     -1.75597545917772      2.43849555438793
