4
Coordinates from ORCA-job orca E -1306.539673188749
  Lr  -0.01301313844037     -0.02517959628322      0.04779580544948
  F   -0.68031893672405     -0.97782634254423     -1.56600483583220
  F   -0.68688463218341      1.84633714991966      0.03709306545823
  F   1.97670670734784     -0.02144121109221      0.04451596492449
