5
Coordinates from ORCA-job orca E -1610.806698314962
  Pa  -0.56246410575917     -0.86707600174316      0.73799516523700
  Al  1.89416474590057     -1.21703078320568     -1.07470857278373
  Si  1.96131219321803     -1.86127950935964      1.20774434802731
  Sb  -0.24461748214134     -0.15764188867898     -2.17199652802251
  S   -2.35390535121811     -0.54401181701254      2.37302558754192
