35
Coordinates from ORCA-job orca E -2234.877505982231
  Nd  0.07287017129375      0.54705535036863      0.97807169865301
  C   -2.39749654880609      6.81396963212187     -0.88242502329892
  C   -1.97921899809355      6.61097859167133      0.42624162985064
  C   -1.47043734967961      5.37993880252048      0.80562976192574
  C   -1.38457721617153      4.35328078708135     -0.12839542650554
  C   -1.80405369383432      4.55552474451763     -1.43897046271220
  C   -2.30966882880553      5.78868473949790     -1.81497371421050
  C   -0.84655025743985      3.03165927208678      0.27533233808011
  O   -0.43914864614065      2.83936210365088      1.46207863346484
  O   -0.79818437410291      2.08312712870776     -0.57724161729470
  H   -2.79374718519777      7.77652020848260     -1.17728944466346
  H   -2.05027982123902      7.41285845181558      1.14806267017506
  H   -1.13732298608052      5.19795780183508      1.81742146745295
  H   -1.72693443179462      3.74216361183443     -2.14614958620365
  H   -2.63570755954143      5.95219748433215     -2.83290845284602
  C   2.59549686787382      0.36761575212682      0.65493749900278
  N   3.61810875347686     -0.13162116962683      0.43554591975660
  O   -1.45325976855337     -2.71392565384075      2.87744028271657
  S   -1.35144192698464     -1.27262211060038      2.97035411317575
  O   0.05249041384200     -0.74935351607688      3.07152006259884
  O   -1.99878519511858     -0.50091687304603      1.86602977189777
  C   -0.06257149887249     -4.21358309410276     -0.19908861224204
  P   1.04191438042691     -2.82200043817787      0.02024902740628
  O   0.23051662514149     -1.53216288365161      0.00205956618075
  C   1.91087226673251     -3.07077650665624      1.56100138226468
  C   2.25420371795228     -2.83066452287987     -1.29211420992584
  H   -0.59185692422266     -4.11048888636831     -1.14503014892539
  H   -0.78430254987688     -4.20530252367361      0.61775768762658
  H   0.49018471196525     -5.15213564108265     -0.19049696530475
  H   2.44826389567624     -4.01868198540476      1.52855109037157
  H   1.19479923224786     -3.08335718069732      2.38147065616391
  H   2.61966137253589     -2.25511611840123      1.70115497922892
  H   2.79736110686937     -3.77514510311906     -1.30292156159727
  H   2.94960529230433     -2.00964324685228     -1.11287585390565
  H   1.75429695221753     -2.68659700839303     -2.24882915835747
