31
Coordinates from ORCA-job orca E -1936.771551030885
  Gd  0.21944510054735     -0.78996616017693     -0.09132361716705
  N   0.85249581736475      1.88041789644460     -0.76207495509184
  O   1.08713840141052      2.99495167784061     -1.09129532719122
  O   1.66855821213832      1.16179835574243     -0.08897891684995
  O   -0.25998303448839      1.29506214540871     -1.05921633467654
  C   -1.50310163486002     -0.36603593114161     -6.47470876638726
  C   -1.31089353463942      0.34624825041256     -5.29825877640476
  C   -0.55648471201168     -0.19918216338702     -4.27525244410200
  C   0.02188539624601     -1.45780516819224     -4.43988682522244
  C   -0.17605267723978     -2.17270082858584     -5.62260627610929
  C   -0.94218664248830     -1.62662045824319     -6.63580158212282
  C   0.83448919930007     -2.00615622000237     -3.34498007321428
  O   0.74912401139313     -1.61505263319428     -2.17921084978370
  O   1.71153264546109     -2.95679842347508     -3.58819175023196
  H   -2.09717730722909      0.06121897997287     -7.27060918258064
  H   -1.74806029845694      1.32717603301754     -5.17908084224650
  H   -0.39965142064095      0.35732498978587     -3.36140861203079
  H   0.22010870416213     -3.17328692214046     -5.75231891260244
  H   -1.10852537146922     -2.18418666537894     -7.54610827177678
  H   1.77659999644212     -3.14167862277456     -4.53336750968204
  C   0.07201704068814      1.39957623310911      2.72916290288812
  O   -0.23126157436991      0.12621728382399      2.10691798773609
  H   0.23713557209988      1.25683413857814      3.79381461355779
  H   -0.74336241320410      2.09897655400547      2.56054933978514
  H   0.97846868206050      1.76825858058028      2.26142925701979
  H   -0.98934467561805     -0.27779521349993      2.54390692763437
  I   -1.90026036300718     -2.62501174968036      0.63737884318585
  N   2.38409348702449     -1.74773938921101      0.80753416281909
  H   3.09159987649525     -1.01762731464263      0.79116958312987
  H   2.74645139413558     -2.51466243133131      0.24841315227803
  H   2.33710212275367     -2.08665482366432      1.76380305544067
