6
Coordinates from ORCA-job orca E -493.402754605221
  U   1.05740904348882     -0.02102793035712     -0.60394060986526
  Li  0.08561377525272     -0.16286645553253      2.23378180511026
  Li  -1.70103835921320      0.10978995951874     -0.55876203950225
  H   -0.63171614004346     -1.06767438722365     -1.38692025911100
  H   1.70421032263568     -0.15712073827789      1.47661996426620
  H   -0.51446864212056      1.29889955187245     -1.16076886089794
