22
Coordinates from ORCA-job orca E -1260.210891698633
  Ce  -0.49544254611334      0.91380870580393      0.23288404990368
  C   3.56392931651399     -0.90287608197168      0.74968405870069
  P   2.94662281298058      0.07664998440962     -0.59543516082164
  O   1.35826206512508      0.23606769664972     -0.40797943924341
  C   3.21570789345193     -0.72309026654393     -2.15735765339786
  C   3.66729459710954      1.69951119595225     -0.57289824895966
  H   3.37130717581107     -0.39437926474434      1.69448756957274
  H   4.64211676117792     -1.02331195587533      0.62698669836210
  H   3.10056880309662     -1.88889259200043      0.74692432244009
  H   4.29009314524224     -0.84149225103752     -2.30994092201061
  H   2.81114691623293     -0.11586295134149     -2.96649616019131
  H   2.74985715873258     -1.70780719398142     -2.16311712798472
  H   4.74409552921364      1.60412676939835     -0.72626062951879
  H   3.49342754300218      2.17126004129349      0.39443607312270
  H   3.25562212715785      2.31140265612537     -1.37531022630520
  C   1.38190776829546      1.60904450871756      2.41093715445509
  N   0.22748449963446      1.66318974495320      2.13652713044367
  F   -1.30136852269643      2.16602990435745     -1.00982069855259
  N   -2.27882514704897     -0.73471806220489      1.00284309558459
  H   -2.13636305807717     -1.71817361213287      0.77057529965591
  H   -3.20973560189657     -0.51634630738500      0.64293040575791
  H   -2.38244950679517     -0.71954932380447      2.01944626107194
