25
Coordinates from ORCA-job orca E -1805.045630229216
  Dy  -0.02662445913027      0.42383055139449      1.28232735306806
  C   2.54445182560853     -1.22763213269448      2.54780634023302
  C   1.90972754750361     -1.09217555661192      1.18131586458750
  O   2.06662013345744      0.04268468716343      0.60993367083030
  O   0.91007599585588     -1.79611561708693      0.92730582817843
  N   1.53382673721710     -0.41766487456005      3.32672224251527
  H   3.52517907156862     -0.76817043051370      2.59884831773483
  H   2.57291190457793     -2.25496141933621      2.89378500361536
  H   2.00760155868296      0.31747947665985      3.83885361549752
  H   1.09676385901710     -1.00964146765908      4.02344729837490
  F   -0.32268022096639      2.35824486463811      0.87805735901163
  C   -4.55369850256180     -0.46657744404720     -0.33108277821976
  P   -3.13179712574196      0.61005855339458     -0.31815651737246
  O   -1.99651579578736     -0.03698835386195      0.49200630888872
  C   -3.59689087628723      2.18165150224868      0.39023803289068
  C   -2.60521304106351      0.89406730851180     -2.00067109437984
  H   -4.28358632625406     -1.42046564803109     -0.78148088610332
  H   -5.36427614630729     -0.01390157016321     -0.90135333147170
  H   -4.88752201183276     -0.63806345708437      0.69128237994271
  H   -4.36843592951305      2.65773325165520     -0.21412984638461
  H   -2.71562649950760      2.82258148990300      0.43060011570507
  H   -3.97995513257559      2.03146529357489      1.39911398597324
  H   -3.41970730763815      1.31602218382545     -2.58866800161914
  H   -2.28947406637992     -0.04717702453482     -2.44875757634578
  H   -1.76995519194201      1.59471583321548     -2.00184368515075
