21
Coordinates from ORCA-job orca E -1940.512523894472
  Tm  -0.42160711086691      0.03946980059025      1.18412252138837
  C   3.55829800763513     -0.93040332658093     -0.74997186560690
  P   2.89694262691991      0.52844457320002      0.02076137265718
  O   1.53954823880686      0.14155895869239      0.74624936489117
  C   2.55821444362298      1.77720923585156     -1.19718265839606
  C   4.02894150441250      1.13877629285514      1.24792846193248
  H   4.50704249002626     -0.68057459918259     -1.22770096618707
  H   2.87343304366763     -1.29936512355149     -1.51287377288035
  H   3.73658721862485     -1.70359906050893     -0.00335774016483
  H   3.48501537119733      2.03062147157413     -1.71468926250288
  H   2.16538090735952      2.67539999357843     -0.72109539667406
  H   1.83392062948929      1.41201037452726     -1.92532643937980
  H   4.97405398248011      1.39399374948548      0.76599685645379
  H   4.21551725968069      0.37458370230668      2.00177216543235
  H   3.62776158333932      2.03491842403487      1.72018502504652
  C   -1.65802783136782     -2.00878462507196      0.10845616797780
  O   -2.21694309666531     -2.80622323714130     -0.42624106148613
  C   -1.31011197220607      1.78604563498016      2.93267079098430
  O   -1.71535135398467      2.58870326077351      3.58488447438303
  C   -1.15781411441438      1.28299672827597     -0.50666213907906
  N   -1.26980182775768      1.93201777131126     -1.45762589878987
