38
Coordinates from ORCA-job orca E -1316.274047508850
  Pr  -0.00745862498993     -0.40406992227695     -0.57800009045507
  N   2.17951115952298     -0.28828651152071     -0.73968510160017
  C   2.62658826031535      0.83955988761503     -1.34878306277072
  C   3.96181128947811      0.99131620874631     -1.62777860712913
  C   4.83281801619351     -0.04243735655907     -1.26548480058239
  C   4.34983586093843     -1.19239942670745     -0.64347826622015
  C   2.99848954992238     -1.31866128532870     -0.37927951150238
  C   2.31524025671108     -2.46406868085392      0.23663356401443
  C   2.95229552493102     -3.58612210327162      0.70868006737793
  C   2.19164919859891     -4.62025184547559      1.26678112040994
  C   0.81243056718528     -4.49262206461328      1.33658096543998
  C   0.22098183779010     -3.34193653832248      0.84673316247660
  N   0.95083799534670     -2.33738910653960      0.31012219230881
  H   1.90267517567008      1.61139604267644     -1.60397658558353
  H   4.31411128880134      1.89235225520047     -2.11473554931166
  H   5.89321268097438      0.04894145111891     -1.47615320944385
  H   5.03101612610040     -1.99051957714314     -0.37845438424011
  H   4.02856451260920     -3.67882196382557      0.65285270054495
  H   2.68254549359691     -5.51247341291118      1.63835753744114
  H   0.19201584232198     -5.27072190154795      1.76243834097909
  H   -0.85287772992741     -3.21726249153401      0.88671824216560
  N   -0.96294424088573      1.84744810925562     -1.10434843434926
  C   -0.78627072842346      2.79499727851181      0.05808878205739
  C   -1.09258879950666      2.06696691448451      1.34455768930224
  N   -0.14913074235094      0.89593011706076      1.48599123392203
  H   -0.63055401041284      2.30002285751017     -1.96100030711023
  H   -1.96633198941892      1.72997406229328     -1.26957618030671
  H   -1.44614170739180      3.65515685410206     -0.06997717785277
  H   0.23861625902744      3.16883818384542      0.04177742373660
  H   -2.11276371130959      1.68170628190382      1.35702862258877
  H   -0.98877753100014      2.73469624439389      2.20027049159545
  H   -0.45833757219070      0.32970382265983      2.28106319400011
  H   0.76226397870391      1.25546586716325      1.78278215912032
  C   -3.20378488750317     -1.02306951726539     -0.76991784290050
  O   -1.74826548602737     -1.01954058551084     -0.34184269566455
  H   -3.54087612664006     -2.00716633364224     -0.43767992968245
  H   -3.24268147263746     -0.93833628449798     -1.85317673689247
  H   -3.69802551412340     -0.21911552919382     -0.23452901588331
