5
Coordinates from ORCA-job orca E -2787.879299444620
  No  0.09688003173970     -1.38912507806785     -0.09315798242276
  Cl  1.48867475004682      0.68085930280456      0.61863482251001
  Cl  1.02628922582581     -3.30151603703791      1.11990348062774
  Cl  -0.96699638171243     -0.85144199037058     -2.23132395855162
  Cl  -0.95035762589991      0.21418380267180      1.65800363783663
