4
Coordinates from ORCA-job orca E -851.903858034508
  Fm  0.89548038840708     -0.55777831402059      0.57970028123171
  Li  -1.48542748004887     -0.46510558970676     -1.78217930265472
  Li  -1.75224662661634      2.09669135215806     -0.65604654294294
  H   2.93868371825813     -0.25191744843071      0.42192556436595
