4
Coordinates from ORCA-job orca E -693.193678424142
  Bk  0.13865176278122      0.20076800920854      0.24486759037190
  Li  -1.18029878034282     -1.62715534777789     -2.18599468390452
  H   -0.49579465250017      2.09581198831174      0.28284234410040
  H   2.13393167006177      0.15246535025761      0.22168474943221
