4
Coordinates from ORCA-job orca E -825.970580348555
  Tb  0.00167932682048     -0.00304767171084      0.01088166244877
  H   -0.71212217960539     -1.02584473195160     -1.58987782941209
  H   -0.71185934802431      1.88353232329691      0.06844185793298
  H   2.01879220080921     -0.03274991963447      0.07395430903034
