4
Coordinates from ORCA-job orca E -1469.248509700412
  Am  0.39505112525704     -0.22369123378844      0.85310357172335
  Mg  -1.21515271045938     -0.65910316285571     -1.92554006888620
  Sn  -1.32351667359544      2.03569744683213     -0.41032504923785
  Cl  2.74010825879778     -0.33101305018797      0.04616154640070
