6
Coordinates from ORCA-job orca E -2173.070087545208
  Bk  -0.13134256065896     -0.22105282851176      0.01082638465850
  I   0.78508283506707      0.49190640019094      2.77822190538571
  I   0.03202850125592      0.97846901145426     -2.74627904165473
  I   -1.48935503577218     -2.70149044486537     -0.07121297951708
  I   2.80839714854730     -0.64535189759220      0.46341993812954
  I   -2.00480088843915      2.09751975932412     -0.43496620700196
