32
Coordinates from ORCA-job orca E -2170.822506096322
  Eu  0.25445351710897      0.17855543754654      1.38506383262964
  C   4.63813833560742     -0.80025109996592     -0.37399362939117
  C   3.32692171874245     -0.87293553771833      0.07089248383414
  N   2.66338357283064      0.22558255222022      0.43465245526975
  C   3.31328791144340      1.38764786571389      0.34415639529680
  C   4.62432645340643      1.44034630310051     -0.10139145057282
  N   5.29367306019569      0.35098088908409     -0.46085149386347
  H   5.16570257961904     -1.69756155693151     -0.66955673822070
  H   2.79553644134363     -1.81354332184819      0.12105197709220
  H   2.76682904253854      2.28094072492404      0.61439248265833
  H   5.14153733764028      2.38824559808012     -0.17155469940534
  O   0.72209591346026      0.06181767378525      3.38666432717702
  H   0.79557571585139      0.02983242467967      4.33567308067244
  S   -1.70515024232348      3.82878900244039     -0.93966156520597
  C   -0.57734931738392      2.97452014921746     -0.16658503570590
  N   0.24058194462724      2.33141665411517      0.38930544252052
  C   0.21128749886803     -1.95083505711817      0.00806724358772
  N   -0.03643094798712     -2.80267504063463     -0.73794156542711
  C   -4.34534441970665      0.90777856806834     -0.11165557338682
  P   -2.93521212632736     -0.18652229101196     -0.22952349805980
  O   -1.96497763850674      0.09766917109121      0.90662096309751
  C   -3.50871911495370     -1.87904365884928     -0.16133091959170
  C   -2.18681181748357      0.06412885943165     -1.83308056711712
  H   -4.83094807816749      0.76841867120203      0.85315647888325
  H   -5.05798706431195      0.70833360753682     -0.91116229160696
  H   -3.98401466362444      1.93382848900026     -0.19023461201496
  H   -4.23290688906042     -2.07289729537626     -0.95201494492510
  H   -3.96965803826949     -2.06523431357453      0.80779646646384
  H   -2.64518931253326     -2.53371208776374     -0.28551536320250
  H   -2.91493124703290     -0.13135392655165     -2.62055462071210
  H   -1.34860328062795     -0.62474855455766     -1.94024360656988
  H   -1.84819684498299      1.09878110066418     -1.90864145420377
