4
Coordinates from ORCA-job orca E -1852.333049000959
  Sm  -0.28377071704310     -0.46408323579798      0.76124663007819
  S   -0.47739626065926     -0.68381662594098     -1.72289506410132
  S   -0.54274554066524      1.81549992101421     -0.20578313213798
  S   1.90040251836760      0.15428994072475     -0.26916843383888
