52
Coordinates from ORCA-job orca E -3138.869485412991
  Ho  -1.11984763097921     -0.81373968778192      0.24308333817966
  N   -2.08721541351057      1.76249943864009      0.64768786130291
  O   -2.48764348154979      2.84951697234927      0.90110279792380
  O   -0.94527573417804      1.54702986843296      0.10207241175184
  O   -2.75087815112324      0.69463439735983      0.91185666004559
  C   1.56882711457607     -3.64606478555823     -0.72218748282985
  P   1.26611671318290     -2.47390361163083      0.63806852124253
  C   2.91333744878536     -1.76487513476174      0.94856026327269
  C   0.98741090405774     -3.57368149249616      2.06308539413572
  H   2.34521747407650     -4.35833485578999     -0.44157360505203
  H   1.88028937029599     -3.11117577771321     -1.61825252069694
  H   0.65025515417018     -4.18961388698051     -0.94213650954037
  H   3.63585504120429     -2.55336145434769      1.16024561935449
  H   2.87152863305611     -1.07453387358740      1.78976539125243
  H   3.24207024093955     -1.21443086425591      0.06693577711601
  H   1.81521356370860     -4.27464821461661      2.17327451916044
  H   0.06517910078938     -4.13407790885539      1.91077581750382
  H   0.88901621344334     -2.98568141795956      2.97434557122352
  O   -2.19021281322022     -2.46268049378145     -0.14382188937874
  H   -2.85743170585981     -3.12937599125122     -0.28746239413660
  C   1.22132405850691     -0.15851692624424      5.09107266376146
  O   0.45942321253007     -0.70373805335380      3.99132485372346
  P   -0.03954390790775      0.21646136421048      2.78877964554501
  O   1.27295529856557      0.98167983506135      2.28283066163478
  C   1.50192443648586      2.40521873822664      2.37484416862459
  O   -0.82810013588507      1.44035021153120      3.45345081623478
  C   -2.10368781337251      1.21359307724491      4.09090250467313
  H   1.34385056325008     -0.96002303537648      5.81112769828497
  H   0.68700836511566      0.67175825086279      5.54875348781527
  H   2.19429501584029      0.17483772542850      4.73562178571171
  H   1.48448869497100      2.72871223551035      3.41191498029199
  H   0.74510066584960      2.93982670964495      1.80577445209992
  H   2.48574682496156      2.57770249399222      1.94944891859305
  H   -2.54656840219482      2.19130957853728      4.24515359159948
  H   -1.95684911237831      0.71412054437940      5.04670898571676
  H   -2.75391631127890      0.61999844058936      3.44978165594779
  C   -0.17995081703719      1.01569177349034     -4.52676188643056
  O   -0.64121814161603      0.57581308672623     -3.22806605589440
  P   0.17075730957767     -0.46975874289437     -2.35040945774517
  O   1.68272737078912      0.05402773981716     -2.28163132945179
  C   1.94572661599408      1.19556892663444     -1.44304456460123
  O   0.47111029015808     -1.72683522554954     -3.28663532954324
  C   -0.62512087581419     -2.60693840643321     -3.60491732269915
  H   -0.97550600229785      1.62243672345439     -4.94401160646505
  H   0.01728810182558      0.15953022934468     -5.16800839522155
  H   0.72516568181176      1.60833390267992     -4.41731389107936
  H   2.98519291235792      1.46147196140575     -1.60504905225830
  H   1.79314304465330      0.94462591367689     -0.39070330087889
  H   1.30369736250087      2.03449428605682     -1.70945004452131
  H   -0.18533110672424     -3.52261243435259     -3.98581506184693
  H   -1.25649941986581     -2.15735560603612     -4.36927185460005
  H   -1.22064582123756     -2.82358654367981     -2.71612725885222
