4
Coordinates from ORCA-job orca E -632.751846273472
  Th  0.15011930453576      0.20895212367743     -0.35814733934008
  O   -0.76634630403621     -1.10564839522255     -1.47493527348725
  O   -0.77996708162513      1.83365578699557      0.19575855440441
  O   1.99268408112558     -0.11506951545045      0.20072405842292
