5
Coordinates from ORCA-job orca E -457.225764773180
  Pa  -0.60843498548078     -0.87397577361825      0.10199528771977
  Li  2.51884227439633      0.01246339080480      0.31680130577617
  Li  1.94073655555993     -2.85790771323778      0.90984857820447
  H   -1.34899300678364     -0.85485921018912     -1.79010047286935
  H   -1.80766083769183     -0.07276069375965      1.53351530116894
