41
Coordinates from ORCA-job orca E -1904.581046982856
  Lu  0.03636048256656     -0.32450367999398      0.20771882555070
  N   1.20148555403851      1.80556388666478     -0.07646152797767
  C   0.32575056745990      2.96752113359213      0.25678243911376
  C   -0.64217452293380      2.58805022917299      1.35872792452076
  N   -1.48341170971013      1.42218269008212      0.97964982942069
  C   -2.59351923880487      1.73759781608370      0.04438645412453
  C   -2.27461018226777      1.31712150003913     -1.38001037552864
  N   -1.85708386167683     -0.11289074766979     -1.39544200416304
  H   1.91946194982895      1.74055595269107      0.64395236185367
  H   1.71000743078171      2.01655437030066     -0.92998651215383
  H   -0.20437170272736      3.26366308928880     -0.64695739612103
  H   0.91623882014646      3.82655596937934      0.57317742197486
  H   -1.26344953370850      3.44875131526975      1.61321455777833
  H   -0.08600080233807      2.30511239811355      2.25380685920227
  H   -1.89308076394045      1.08479364981722      1.84452913463120
  H   -2.83871145843919      2.80060780417933      0.07054886174836
  H   -3.48231498311511      1.20238660185023      0.38195561013054
  H   -1.45417872944833      1.90326722195983     -1.79370312994644
  H   -3.14359537435262      1.48869982584303     -2.01496090906989
  H   -1.65928976897274     -0.38349632470954     -2.35555818180259
  H   -2.65976141400834     -0.68311325454047     -1.13585668314485
  N   -0.32434023618884     -2.73031474367583      0.02679151696431
  C   1.02425901414844     -3.34448288353285     -0.13136573455104
  C   1.75059988129180     -2.69142081314236     -1.28775251905936
  N   1.95011519403028     -1.23831255100307     -1.00422754358537
  H   -0.71616167086664     -3.04874964595585      0.91031067584390
  H   -0.93745771390743     -3.10742325362961     -0.69066829358214
  H   0.95672357307792     -4.41954561970462     -0.29250064957356
  H   1.57102710928829     -3.18156331095123      0.79806744818910
  H   1.16147673951450     -2.77641625205245     -2.20189637645718
  H   2.70133884134705     -3.19183101076858     -1.46532957763768
  H   2.27529811913168     -0.78384989804835     -1.85262441407786
  H   2.72806098649419     -1.15223983883850     -0.35187485010656
  C   0.18920131618964     -2.24051989325310      3.77381688907954
  C   0.84618619630770     -0.92758294300728      3.40315358823570
  O   0.62880837181599     -0.61659135274144      2.03640228351627
  H   0.34717441566462     -2.46768792979581      4.82703404437660
  H   0.61206169477084     -3.06465345397735      3.19565993392293
  H   -0.88830182494108     -2.19793208122934      3.60239235803759
  H   1.92132285603728     -0.97439555952040      3.58545050359520
  H   0.44765637841585     -0.11816841258580      4.01954715672766
