26
Coordinates from ORCA-job orca E -1379.937498064145
  Tb  0.35242032396255      1.03849472708779      0.24691005679752
  C   3.62403293984417      1.84434249852551     -0.33512153768163
  O   2.29136140197972      1.51001479232607     -0.09792396497662
  H   4.24240750047507      0.94688207449249     -0.43135062632600
  H   4.03145755276095      2.44482985323662      0.48369228774086
  H   3.72587120151841      2.42126021380273     -1.25901777207468
  C   -0.41835604582647      0.94329282242969      3.58940638140835
  O   -0.21329268488369      0.96294253991863      2.21234891674207
  H   -1.10198529692323      0.13575096780425      3.87853541507057
  H   -0.85447563766867      1.88466494810154      3.93758567574125
  H   0.51958110847854      0.78911848363651      4.13191376902153
  C   -1.08736039487017      1.21704427481898     -1.58694188183274
  N   -2.19384742971194      0.41718489480834     -1.79461172170229
  C   -2.40715055830388     -1.10640618517952      1.03064461046420
  C   -3.74862376416879     -1.11566976728593      0.31626477718570
  C   -3.36729943433213     -1.62902838993229     -1.07172064253000
  C   -2.03200261752362     -0.94466751659435     -1.30105499507609
  O   -1.42178276593345     -0.85724736658528     -0.00295520959105
  H   -2.17836331465739     -2.07450158560231      1.48025117698550
  H   -2.30607299821840     -0.32878760518532      1.78291289785623
  H   -4.14665654250380     -0.10497626541659      0.24345960020883
  H   -4.47756379321451     -1.74610989659895      0.82131990953059
  H   -4.08932826909374     -1.37081223240118     -1.84424143516722
  H   -3.23418199809003     -2.71171232597023     -1.06565824117634
  H   -2.62882438496479      0.45299480438054     -2.71017924265420
  H   -1.33626409813007     -1.51709875861768     -1.92336820396443
