4
Coordinates from ORCA-job orca E -841.572610108058
  U   0.25021199625169      0.03117493939609      0.17671005157370
  H   -0.54193565169992     -0.95815402614954     -1.54875047193626
  Si  -1.13549037031298      2.19052496374932      0.04750061595561
  O   2.02370402576121     -0.44165587699587     -0.11206019559304
