29
Coordinates from ORCA-job orca E -4778.354590662202
  Yb  -0.05402433694777      0.18953845079672      0.55730488097308
  N   0.35222684967459      1.40965370084683      2.72918495365410
  H   1.11056086948435      2.08265178333842      2.77970875121049
  H   0.64819696439277      0.61263814106152      3.29081656896774
  H   -0.42586619660532      1.83380485645217      3.22405406267902
  C   2.64388368451398      0.04795033359020     -1.90071485065231
  O   1.85693894629848     -0.28263233166005     -0.74193562411344
  H   2.59080813431008     -0.75298869151071     -2.63451670638281
  H   3.67773613405351      0.22660760342443     -1.61512469834742
  H   2.22328394892214      0.95476540539710     -2.32417147879031
  H   2.18187867543837     -1.09421091067672     -0.32562565796394
  Br  0.75300474091676     -2.07706727478542      1.79976501050468
  F   -2.90343541368875      1.70699812034103     -1.79390114249284
  P   -1.85433663051014      2.71059916567178     -1.23536255565450
  F   -0.54484271349218      1.80812369001284     -1.51663938414459
  F   -1.91732220493820      2.25771718958494      0.30172324374661
  C   -1.90719485892328     -1.93465853500882     -1.05788116798246
  C   -2.56207152847091     -3.09897935882045     -0.34518491010103
  C   -3.72053046103477     -2.41189952485471      0.37691202564677
  C   -3.08966692783624     -1.10884538425305      0.83674691332762
  O   -2.05783817674314     -0.80481971642453     -0.14921781330564
  H   -2.40665768536853     -1.68244259634915     -1.99386588223552
  H   -0.84128046258813     -2.08306210070888     -1.23828316434309
  H   -1.86526329071957     -3.53507153169051      0.37028165458697
  H   -2.88899224093632     -3.87040582528201     -1.03794744579914
  H   -4.10420222747881     -2.98998321778102      1.21359437701181
  H   -4.54195161971330     -2.21550044242105     -0.31207958679663
  H   -2.60208539039404     -1.22501334788019      1.80770901241115
  H   -3.78125658161538     -0.26926765041053      0.86465061438558
