5
Coordinates from ORCA-job orca E -2498.819289239501
  Sm  0.25055683521202     -0.71891692980701     -0.11520546588093
  Cl  2.15998612404271      0.90333191935044     -0.07106668801023
  Cl  0.37570038553655     -2.91855610338529      1.41017552679095
  Cl  -0.92221494385216     -0.98672514328711     -2.31058281909780
  Cl  -1.16953840093913     -0.92617374287103      2.15873944619801
