12
Coordinates from ORCA-job orca E -1598.002589237579
  Tm  -0.17074881607428      1.14851444189837      0.94837060929712
  N   1.56187680257653     -0.10966341632219     -0.20669114813831
  H   2.01325489438373     -0.76419246518793      0.42248211517209
  H   2.27576591981251      0.51966503342734     -0.55776938400366
  H   1.20034479122535     -0.63773168923598     -0.99363083432273
  O   0.08667014084450      0.20102139209841      2.69623971971220
  H   0.20957401639754     -0.09777838438478      3.59018094268655
  N   -2.45551527605288      0.63948135692278     -0.49549263847414
  O   -2.39887598186945      1.52327473060037      0.42665685533549
  O   -1.35668843153720      0.00572722371687     -0.69360696659251
  O   -3.44318733471480      0.42082611788193     -1.12152524656875
  F   0.81132927500847      2.85145565858480      0.58908597589664
