5
Coordinates from ORCA-job orca E -2427.876776858999
  Fm  0.71722845352309     -0.90659283716191     -0.16572571248447
  S   2.24905874622015      1.08760871742885      0.25425127711277
  S   0.51677392538783     -3.09359400394308      1.22155401872223
  S   -1.47103249892842     -0.95148185653988     -1.59043053585780
  S   -1.31753862620265     -0.78298001978396      1.35241095250727
