6
Coordinates from ORCA-job orca E -793.229129493135
  Es  -0.19335011312369     -0.85981777078755     -0.46156824608480
  Li  0.68814750304160      0.85714491158096      1.74093940525198
  H   -0.50318663488921      1.26626396883746     -1.20527519732341
  H   -1.16160104006907     -2.57937277433671     -0.25224603252148
  H   1.49455285779725     -0.12884830468550      0.57809461641235
  H   -0.32455257275689      1.44462996939134     -0.39993454573465
