23
Coordinates from ORCA-job orca E -2183.892650098075
  La  0.59824525678007      0.17822842860807      0.33345164397230
  O   2.70385150820224      0.00905643893768     -0.66598142331053
  S   3.62702263706068      0.40199993209586      0.55782545609629
  O   2.48301613438838      0.52579652731030      1.64833799100090
  O   4.44186881017967     -0.77119898164452      0.89629366975387
  S   -1.11365256484976      0.14561526255585      2.87495094276233
  C   -0.30503739372514      0.32345374230991      4.33676591789368
  N   0.17939425649381      0.44434733720331      5.38316376439365
  I   -0.13460415663550      2.92982494322631     -1.21745322517383
  S   -1.17475251562869     -4.49632835301306     -1.52811540218646
  C   -0.45789359403711     -3.14112529672111     -0.96813699076272
  N   0.01666461249102     -2.15705170468834     -0.54831718417732
  C   -5.12018672595608     -0.30718557309569      0.27332726370517
  C   -4.53023179457117      0.92896044158722      0.06811590154076
  C   -3.14945761786934      1.00223666749462     -0.02393314335855
  N   -2.35622021758898     -0.06635793517871      0.07533238305749
  C   -2.93238810867105     -1.25177056602560      0.28237815463649
  C   -4.30480786311690     -1.41963544646508      0.38182463203025
  H   -6.19647675097146     -0.40064344247751      0.35096045849274
  H   -5.12043921562592      1.83079037626227     -0.01731346110266
  H   -2.64889877120056      1.94788934937450     -0.18896949385789
  H   -2.26819412496138     -2.09900471857355      0.36956128505174
  H   -4.70862180018652     -2.40899742908270      0.54273085954218
