5
Coordinates from ORCA-job orca E -716.864109661659
  U   -0.17180234781637     -1.83045913986767     -0.26148910982096
  Be  0.86571416824387      1.17310742073851      1.32839043507750
  O   1.26804396036920     -2.78161336360204      0.20487997936485
  O   -1.71323636964750     -1.17721745986649     -0.88715826169216
  O   0.44577058885080     -0.03085745740231      0.68743695707076
