27
Coordinates from ORCA-job orca E -2255.440611261289
  Lu  -0.37464815802740      0.36562017584204      0.30779273527047
  C   3.12573146598648      2.51602324053430      0.49086172685367
  C   2.96200228918998      1.06166541492593      0.13326159735223
  O   1.83847802299770      0.46437194041049      0.86214492051659
  H   3.97028300115650      2.93071688786485     -0.05799841364275
  H   3.32951113420849      2.64186465220999      1.55502801690643
  H   2.23524510792776      3.08316128998590      0.22463195548924
  H   3.84813972970298      0.47284643992344      0.36273281834887
  H   2.71119695908941      0.93431715144815     -0.91662270355678
  H   1.96937373726094      0.58291845170854      1.81089621921704
  F   -0.59748258973332      0.51997121347344      2.25853909614078
  C   -5.43148604648364     -0.39801139562907     -0.05109617098906
  C   -4.69892596075490     -0.09328767933791     -1.18878486335216
  C   -3.33524438347095      0.07984284301578     -1.07215854122838
  N   -2.69069168017236     -0.04255643383280      0.10073767358394
  C   -3.40756765362333     -0.32728257289200      1.20170246011487
  C   -4.77482130861738     -0.51457593029507      1.16405748021963
  H   -6.50239111845797     -0.53403801888677     -0.11004224450753
  H   -5.17420073347353      0.01992591695944     -2.15151582052434
  H   -2.72936005820873      0.34583697385328     -1.92917873022552
  H   -2.85370053579916     -0.38244064617323      2.13001678759508
  H   -5.31015174913070     -0.73782338059764      2.07465087435390
  Cl  -0.15333539177232      1.90908379072745     -1.55571694601585
  N   0.07901353096617     -1.84403883135427     -0.51618797003209
  H   0.90790060767617     -2.25185676734137     -0.09130382868241
  H   0.25305746613264     -1.83477719078292     -1.51874715981512
  H   -0.67442568456942     -2.51017753575998     -0.36840096939077
