5
Coordinates from ORCA-job orca E -2477.822312247110
  Dy  0.12206916035795     -0.91616332831818      0.19396984543404
  S   1.07782372894628      1.57505403452241      0.96339098382366
  S   0.58809026531018     -3.60866164523796     -0.32872307055190
  S   -0.54045442944171     -2.78793836211467     -1.74793132184761
  S   -0.55303872517270      1.09066930114843      1.99135356314180
