50
Coordinates from ORCA-job orca E -1958.786825754882
  Dy  -0.00707947039782     -0.59714754640726      0.18676219426436
  C   4.42943486074750     -0.27096882642613      1.13770347738908
  C   2.96146205519236     -0.18690046634185      1.41445583652090
  C   2.50706955198051      0.11173344200672      2.70494337315458
  C   1.16601201079232      0.14220110443806      3.08787689633982
  O   0.18845101256794     -0.08417691601610      2.28641956958183
  C   0.78966307198467      0.44446157877723      4.50282663695782
  O   2.18717764514629     -0.40263409758120      0.42037065823420
  H   5.03245476343487     -0.01631763257771      2.00364200730012
  H   4.67881949766439      0.38947703589997      0.30698171984739
  H   4.66388216271737     -1.28784913806453      0.82022440439087
  H   3.24817698490348      0.29698095392818      3.46598389193676
  H   1.65304578081073      0.65217157391670      5.12702530026232
  H   0.24122147164198     -0.40588663446702      4.90890573926729
  H   0.11182914174252      1.29823706629616      4.51572329525864
  C   2.30868529233157      2.63633069250698     -1.15640334269114
  C   1.10911776028713      2.63444885316679     -0.24038303715948
  O   0.13979955291402      1.63006521291628     -0.65160370889556
  H   3.03287268893680      3.37605140218146     -0.81717996825783
  H   2.02259134478820      2.90298968102338     -2.17557787393488
  H   2.78654191879212      1.65749076470589     -1.16562758038904
  H   0.60640457243294      3.60062449750243     -0.22340001351134
  H   1.38052339204264      2.36740677167643      0.77972659440446
  H   0.01401614283756      1.66474230583441     -1.60737814641097
  C   -0.36333853265616     -2.92286523916610     -0.32934930875497
  N   -0.76174388101209     -3.89626055100312     -0.81236086604157
  C   1.01887114407393     -1.18592726650321     -2.87198286019137
  C   0.52770804999479     -2.27654687279118     -3.80312436060628
  C   -0.80686150226243     -1.70863600246958     -4.28469519426948
  C   -1.35819141818952     -1.08719824484144     -3.01687312809424
  O   -0.18727202722777     -0.59614392565395     -2.29036992471007
  H   1.55306435014913     -0.39442552312041     -3.39945299299160
  H   1.64721093411280     -1.56279281563751     -2.06217982495103
  H   0.36783973210285     -3.19859502101780     -3.24603434227151
  H   1.23020047126546     -2.46503213020622     -4.61139620568680
  H   -1.47279037772402     -2.47289506933400     -4.67793083684893
  H   -0.65425759714059     -0.95111229820084     -5.05420266444278
  H   -1.85003842713161     -1.83565872709085     -2.39652090127263
  H   -2.01946144748784     -0.23857019152265     -3.18067288352050
  C   -5.21057582638683      0.16244364297150      0.34609800396266
  C   -4.34786427076697      1.24710434362540      0.40325078396876
  C   -2.98949928765191      1.01665350017271      0.31898619727658
  N   -2.46798097404445     -0.21083808277470      0.18034722068534
  C   -3.30817886086203     -1.25630446690932      0.12954582133336
  C   -4.68071253383948     -1.10995867370026      0.20856527715981
  H   -6.27994099402886      0.30840730510837      0.40989002831928
  H   -4.71758518773913      2.25574949745561      0.51294651809039
  H   -2.28381732260434      1.83661683297015      0.35984685460035
  H   -2.85676210015461     -2.23491877786870      0.01949021360020
  H   -5.31409531908048     -1.98332692138714      0.16346145179692
