34
Coordinates from ORCA-job orca E -2472.177807303331
  Ho  -0.07428517747138     -0.28392143818989     -0.46540185505514
  C   -0.71353003671924     -0.78907176783619      3.55000485770445
  P   0.03652607489872      0.40555888845145      2.39170046189867
  C   1.67403468129946      0.71464501827648      3.13978776644351
  C   -0.86541205001774      1.93871012568477      2.80826082611990
  H   -0.63835520711845     -0.44729588966570      4.58433968724642
  H   -0.22057394732282     -1.75336006179661      3.43736649510891
  H   -1.76516475586769     -0.91726985754775      3.29112143927079
  H   1.59614882440529      0.99793155501351      4.19151619558091
  H   2.16732794739513      1.50815929826444      2.57892694449995
  H   2.28318810508191     -0.18348398007096      3.04348065953446
  H   -0.77867408990947      2.17715622499924      3.87030234289526
  H   -1.91907376430098      1.81413290064850      2.55742340773114
  H   -0.46211389361360      2.75746497458182      2.21352855279630
  N   2.58703786111579     -0.22261702223615     -1.08324849071642
  O   2.24593742520717     -0.45781431679044      0.13350418521270
  O   1.76899952679052      0.05412693991144     -2.03833765691459
  N   -2.22499329408141     -0.05237358462674      0.18526416003363
  N   -3.10356600117157     -0.02977623594344      0.98150893811836
  N   -3.95377243260822      0.00486931626426      1.74765477818339
  N   0.08062743568847      2.50786223235080     -1.16140951370125
  O   -0.60198454810886      1.69691389140551     -1.85054984396743
  O   0.61945319766775      2.02140846782228     -0.12117794726552
  O   0.21197129913628      3.66814699245150     -1.47074689762380
  C   0.08479813289862      0.32211742871842     -4.59811968503333
  C   -0.65620532285375     -0.43665720325324     -3.60531847106292
  N   -1.21875605374660     -1.00312681921851     -2.78044999678021
  H   -0.11597666669280     -0.06198922334399     -5.59567009618260
  H   1.14353078514382      0.23475239986633     -4.36144121079747
  H   -0.21107963566628      1.36626078938445     -4.52303203186395
  N   0.42154962234079     -3.05820194480314     -0.03367644439079
  O   0.60745722953287     -2.50999337154706     -1.15766504305787
  O   -0.09124440650581     -2.31078721292989      0.85824637167200
  O   0.70807313517407     -4.20977751429560      0.18250711436255
