4
Coordinates from ORCA-job orca E -1040.949546277848
  Bk  -1.76232042764664     -0.79837191210665      0.59087784128155
  P   0.14630392264394     -1.04342916617200     -1.22412905028060
  H   1.35624424123284      1.93006062483324     -0.20891481741103
  Be  0.85626226376988      0.73363045344543     -0.59443397358992
