27
Coordinates from ORCA-job orca E -1545.334440046785
  Ce  -0.12240632893742      0.61475761204268      0.04741300699471
  N   2.24355388196244      0.20595663396072      0.44000404396797
  C   3.08644767070280      0.17845979398608     -0.60321754728922
  C   4.44441141655550     -0.01012212866450     -0.45816335176652
  C   4.94307754300937     -0.17578349770287      0.82501163742097
  C   4.07646812934682     -0.14603814533710      1.90978314533551
  C   2.72538893592904      0.04865266756277      1.69252004376067
  C   1.71056105890713      0.10911535586278      2.77207922420877
  C   2.00900815684858     -0.01258365241959      4.11502728060414
  C   0.98447988074972      0.07094983089397      5.04958999185773
  C   -0.31761179726080      0.27514945447396      4.62230907195685
  C   -0.54773874844539      0.38650329671441      3.26644923171973
  N   0.43766393276922      0.30375742142079      2.36036965995501
  H   2.65768300970982      0.31359798416621     -1.59281713697085
  H   5.08767043257190     -0.02515785190166     -1.32512903235163
  H   6.00191079322168     -0.32603190499939      0.98431110472995
  H   4.46394021714961     -0.27273560650094      2.90865021390435
  H   3.02460924070945     -0.16715587204918      4.44451355024224
  H   1.20696429513931     -0.02063204951549      6.10368074953378
  H   -1.13892090626267      0.35014199961210      5.31906612392959
  H   -1.55084545871716      0.55297752618432      2.88879125042147
  Cl  -0.79698581246989      2.91805342992547      0.38336406406697
  C   -2.43519797739049     -1.85719178233231     -0.02554244361874
  O   -1.42020678259117     -0.81808360044693      0.00710256671142
  H   -3.40087249667293     -1.38006146895546     -0.16252093636813
  H   -2.39548429419918     -2.39370037918140      0.91751205508876
  H   -2.21126799233549     -2.51999506679937     -0.85565756804577
