4
Coordinates from ORCA-job orca E -1323.728852740089
  Yb  -0.70864876255675      0.91473980780847     -0.15191186924103
  Be  0.90097331703093     -1.84873239530208     -1.32130808519502
  O   0.20048253704607      2.45659088105829      0.87202833505043
  O   0.25389730114602     -0.69696943118418     -0.82311740718455
