21
Coordinates from ORCA-job orca E -2282.375323828178
  Tm  -0.56727034773351     -0.09744001927745     -0.21015806869071
  F   0.40633774549929      0.07344004324313     -1.97883983314558
  O   0.38080542770371      0.47008975711188      1.51209262584745
  H   0.42625824794036      1.14063806917259      2.18586434133149
  S   -3.68117973175608      3.88968686736812     -0.48016166004442
  C   -2.73543123700040      2.57521791174521     -0.43663216265405
  N   -2.04806109081420      1.62534241060098     -0.40160556500027
  I   -2.50269228067578     -2.38030588908233      0.03215112128534
  C   1.19074489299931     -2.78525285724661     -1.18481405398194
  C   1.79639912517594     -4.05439363419302     -0.60690041278579
  C   1.13354326125091     -4.11533692274242      0.76930503321663
  C   1.12627366427921     -2.65298377301112      1.18116676603668
  O   0.98746793760255     -1.91834359102395     -0.05053538715976
  H   0.22003309392531     -2.98375278227700     -1.64340910798116
  H   1.81948080848996     -2.25340175498029     -1.89398586644092
  H   2.87916832881205     -3.95388728677223     -0.50702780895899
  H   1.58537039839719     -4.92485360705431     -1.22609793790278
  H   1.66573499883140     -4.74398876470067      1.48207150202453
  H   0.10675285548580     -4.47035369173961      0.67544519569300
  H   2.06242913214407     -2.34605278193501      1.65197943827549
  H   0.29763476944288     -2.38676770320572      1.83329184103578
