4
Coordinates from ORCA-job orca E -422.926711859464
  Th  0.26850218296279     -0.00952764673072      0.02107697207456
  Li  -0.97966992968482     -2.07861000901003     -2.31493166925171
  Li  -0.99010953405207      3.05323308187696      0.59728348297539
  H   2.29776728077409     -0.14320542613621      0.25997121420176
