5
Coordinates from ORCA-job orca E -950.487520175301
  Eu  -0.37271975266221     -1.62735732554485      0.77334777832743
  Be  1.21533000121215      0.84519839319661     -0.87971156931794
  O   0.44609589008311     -3.13598890558544      0.53339369365045
  O   0.78738469388470     -0.44708064477152     -0.56168580142464
  O   -1.38160083251775     -0.28181151729479      1.20671589876468
