7
Coordinates from ORCA-job orca E -1113.266213354008
  Ac  -0.76582200762009      0.12808043198210      1.27330146160832
  H   -0.35869578894172     -0.73098735236490      3.33512056625331
  Mg  -0.58665331560306     -1.03764711421109     -2.17546420034076
  B   0.75766133678271     -1.47553090344682     -0.19730768093294
  Sn  1.22805773747081      2.74571061500715      0.25065651487872
  Te  -2.79695470521000      0.24475921178971     -1.11088442604551
  Sr  2.52241674312134      0.12560511124386     -1.37543223542115
