6
Coordinates from ORCA-job orca E -385.259531806807
  Ac  -0.01754862888372     -0.92560566787048     -0.65758046550211
  Li  0.76940745519288      0.85667689022408      1.84012395991181
  H   -0.71897214871994      1.42716483738788     -1.28426251503838
  H   -1.22859787085787     -2.71986406841027     -0.22485017815339
  H   1.63989183775219     -0.22944926230781      0.84744090150123
  H   -0.44417064448354      1.59107727097661     -0.52086170271916
