26
Coordinates from ORCA-job orca E -4232.830023483355
  Eu  -0.73917871969413     -0.61512734108785     -0.09031519584172
  N   -0.44053144638930      1.98393932936336      0.25130061480779
  C   -0.14822152627965      2.43855672435744      1.61882104535854
  C   -0.40416132248187      1.32274105826134      2.62356371361471
  N   0.18013704510209      0.04315864765126      2.18627108948242
  C   1.64967029148650     -0.04959357192672      2.23614018836966
  C   2.35402554097901      0.40743479381686      0.96192024052725
  N   1.86715728946142     -0.32150641413962     -0.22595948954559
  H   0.00414994743511      2.58581401384348     -0.43059245222379
  H   -1.43818888734468      2.02519226781899      0.04630607873156
  H   -0.74996765026239      3.30408012558639      1.90552649297024
  H   0.89276347541445      2.75752251580521      1.66637942024740
  H   -1.47707032935183      1.15949949614190      2.71149226817150
  H   -0.01290998908545      1.62421548974090      3.60155128605135
  H   -0.19530452596360     -0.69234185195100      2.77554214289937
  H   1.89376594753462     -1.09873643217972      2.40269742919580
  H   2.04842223566363      0.52602217996501      3.07892473734170
  H   3.42737293362704      0.26195227907187      1.11207989534487
  H   2.19675878797657      1.46830168943068      0.78388650766828
  H   2.09496440689680     -1.31049862311824     -0.13608367566494
  H   2.34280443460095      0.02187311805436     -1.05212602825987
  O   -2.37758907767984      0.71796801913427     -1.34663852762385
  S   -3.32851934024990     -0.14385015201268     -0.48177869440363
  O   -2.67445780577524      0.07924084766939      0.94018175803915
  O   -2.79759275554653     -1.55186827326003     -0.78936518429918
  Br  0.35080103992621     -3.09588993603692      0.68967433904095
