20
Coordinates from ORCA-job orca E -1182.931214520975
  Eu  -0.20305876347810      0.60314693365792      0.95052697305214
  C   2.73828246349859     -0.92894001488779      0.91690383129714
  C   1.91596458514984     -0.14953426197536      1.90849419032249
  O   1.91775937017724      1.10305213937305      1.84969885367192
  O   0.84201526444271     -0.73317636506437      2.32195715884354
  N   1.77907015816391     -0.75956121065235     -0.24620826641562
  H   2.84880225018872     -1.97347406888521      1.18514873963158
  H   3.69728729993697     -0.46744830268356      0.71134723070496
  H   1.51780012486168     -1.67610840284593     -0.59810915358092
  H   2.26464156195548     -0.29984692230244     -1.01098765678791
  C   -5.00458820258719     -0.12239261099478     -0.42618224679498
  C   -3.62717796664927      0.09312383538299     -0.04467245152929
  N   -2.53074833077843      0.26660716993749      0.25859387381359
  H   -5.54004742784393      0.82630835912069     -0.39005708002555
  H   -5.46223074200882     -0.82915141272924      0.26601897000104
  H   -5.03861138587830     -0.52484977999416     -1.43858582507329
  N   -0.22679823608019      3.08714103111065      1.28288890805231
  H   0.63583568472734      3.49519975983062      0.92135867337057
  H   -0.19551818942716      3.30695052713279      2.27924959494645
  H   -0.97977951837097      3.65885359746899      0.90411568249973
