33
Coordinates from ORCA-job orca E -2217.908962645593
  Tb  -0.28458472801018      0.76603967434888      1.12044833043522
  N   0.12605538346040      0.73332412549930      3.88787515023468
  O   0.32117632493815      0.72636428447981      5.06067574612242
  O   0.64897452711281     -0.13185893358679      3.09403318657796
  O   -0.61857513913340      1.59315453897745      3.30780130260754
  C   2.42665454746540     -1.18448137953735      0.92065561090312
  C   3.20981121445547     -1.87940325439324     -0.17729278319876
  C   2.54082499236269     -1.33433753957192     -1.43781754994616
  C   1.07800760283675     -1.32836476724050     -1.04033565934125
  O   1.07934095357070     -1.03540137226350      0.38531291419534
  H   2.82253838049362     -0.18777979358058      1.12316456513134
  H   2.35002261553307     -1.74049399296139      1.85022098677757
  H   3.08339555040946     -2.96081249238814     -0.11212205623189
  H   4.27188828028811     -1.65185057287628     -0.12082222447958
  H   2.72148480023526     -1.94362066117274     -2.32072232751470
  H   2.87515995419208     -0.31578096044276     -1.63596085302222
  H   0.60018933118421     -2.29839148842122     -1.17682549025147
  H   0.48904092979727     -0.56640148263815     -1.54655489565294
  Cl  1.25910653134160      2.23327411562812     -0.20912302083170
  C   -6.42035777722363     -0.03935731684361     -1.98440520337355
  C   -6.17526775869270      1.09240769156178     -1.21776053694279
  C   -4.95607332564627      1.24255635267062     -0.57806357666675
  C   -3.98428057221589      0.25596362444680     -0.70839778343008
  C   -4.22924575031537     -0.87835991790832     -1.47507963553184
  C   -5.44963430848853     -1.02440443726787     -2.11352245549381
  C   -2.67906901437913      0.42066520727803     -0.02671800640198
  O   -1.77683598109098     -0.47387122632863     -0.13941751822848
  O   -2.44651727646270      1.45328703965819      0.67169604730606
  H   -7.37308168615574     -0.15468425342070     -2.48396101713903
  H   -6.93468860624562      1.85593855131058     -1.12026822057319
  H   -4.74147488198000      2.11455479745454      0.02328680848143
  H   -3.45885124945552     -1.63170294002995     -1.55979547196439
  H   -5.64613386418120     -1.90387122044038     -2.71130436255614
