56
Coordinates from ORCA-job orca E -1726.217029259753
  Nd          0.50935060033212     -0.27134307765846      0.02095741115651
  N           0.68499517292381      0.10624679014616     -2.52523555878617
  C           0.61477953827917      1.56621692604200     -2.86859703757906
  C           1.54538755460133      2.34323011424978     -1.95965407815912
  N           1.15410563969726      2.20462368134651     -0.51707399197853
  C           0.03054083106379      3.12224795345058     -0.10908977368399
  C          -1.21726455208027      2.35884788599265      0.30596344723837
  N          -0.89702053206582      1.39255645726197      1.40094169730222
  H           0.02135148649078     -0.39908238301235     -3.11191675196009
  H           1.59417662199748     -0.24557064539657     -2.83280388335590
  H           0.89101491975668      1.74616105918050     -3.91470612264575
  H          -0.42452254313070      1.89784712234576     -2.75199321929081
  H           2.57144259293279      1.96533409457077     -2.06575828397950
  H           1.56524637212800      3.39896536848067     -2.26044971673141
  H           1.97502127203386      2.48835484531466      0.01341957581209
  H           0.36810639633008      3.75341121317979      0.72243774228016
  H          -0.22322952212757      3.80467746604265     -0.92888227362271
  H          -1.99990372772960      3.07047649371145      0.59989663180087
  H          -1.62850667604290      1.78776634858914     -0.54354897770992
  H          -0.51770095760057      1.90636952862494      2.19658520453581
  H          -1.76536966524405      0.98729606119286      1.74996175744693
  N           2.77202603971305     -0.57564253392518      1.02657601458433
  C           3.22802862947134      0.33942108922967      1.90503470139366
  C           4.42045547926022      0.20225792691544      2.59329551076042
  C           5.17552621029217     -0.94461699191120      2.36671370267858
  C           4.71120901729854     -1.90230817031137      1.47287045298286
  C           3.50314027842437     -1.70038714813839      0.80768040785098
  C           2.92888013848772     -2.68012388482730     -0.13962731284104
  C           3.61816001915768     -3.81385328645460     -0.56559049495291
  C           3.01021988271452     -4.69741251826879     -1.44970611627829
  C           1.72187800731016     -4.43076485258585     -1.90133964749858
  C           1.09631512772240     -3.28145572522686     -1.44812456254590
  N           1.67210346582643     -2.41844414475071     -0.58832740020466
  H           2.60125872372194      1.21730034740614      2.07082314495557
  H           4.74485199137921      0.96778794009595      3.29047553684453
  H           6.11528948540847     -1.09806623071424      2.88927738288464
  H           5.29205207698934     -2.80304065437056      1.31460302566175
  H           4.62632693990746     -4.01714832756987     -0.22437208780612
  H           3.54099375264435     -5.58407175346730     -1.78414633243983
  H           1.21442143929788     -5.09704046464229     -2.59126012951971
  H           0.08722770677205     -3.03506946884818     -1.77906075804676
  C          -2.14766248097701     -2.52637010840433      0.40648370173808
  C          -3.52230628407849     -2.82256277777783     -0.17957321782800
  C          -3.47456263331326     -2.16308894851280     -1.56198162011919
  C          -2.71131779290322     -0.89014853627555     -1.27305790295612
  O          -1.65253598652423     -1.30611689192095     -0.31570455151573
  H          -1.41900038023103     -3.32087005592542      0.21350698701886
  H          -2.17710731949247     -2.29269677250096      1.47444669233638
  H          -4.30904903002256     -2.37268622108025      0.43355238386901
  H          -3.71031117531891     -3.89753923333468     -0.23254105821750
  H          -4.47104238713914     -1.95736737662319     -1.96145200663699
  H          -2.93698210686809     -2.78484334849134     -2.28670705010681
  H          -3.34101453274593     -0.13989053368282     -0.77938624300756
  H          -2.21470803535920     -0.44740261917757     -2.14248000022553
  C           0.30302777093019     -1.62708793413301      2.55396900542224
  O           0.37417713969836     -2.17846309344916      3.52914604367537
