4
Coordinates from ORCA-job orca E -2146.240709704796
  Gd  0.02761378219673      0.03357073473844     -0.05613545360078
  Cl  -0.94450427933917     -1.35778508370524     -1.83707433709927
  Cl  -0.95227736472630      2.27263844925132      0.22460837146552
  Cl  2.46565786186873     -0.12653410028452      0.23200141923453
