5
Coordinates from ORCA-job orca E -845.568162872132
  Fm  0.18162474839704     -1.43866071076937     -0.13334915992466
  Li  1.42434383793403      1.11354087955347      0.85465475645929
  H   0.23354764993001     -3.08425348103073      0.93162679183776
  H   -1.07525704901986     -1.50553238442448     -1.63965239396312
  H   -0.06976918724124      0.26786569667113      1.05878000559074
