4
Coordinates from ORCA-job orca E -661.276634111866
  Cm  -0.03863812523654     -1.26450464521686      0.76220403336369
  Li  -1.90816482713975     -0.44965361458776     -1.89965235859566
  Li  0.28688873683015      1.35812795760179     -1.22635645697530
  Li  2.25640421554613      1.17792030220283      0.92720478220727
