6
Coordinates from ORCA-job orca E -5485.888018747556
  Eu  -0.23891885735558      0.28538467241494      0.07765972538925
  H   1.16599380770084      0.99085093896584      2.76348929930732
  C   -0.41699459279748     -1.06875325901407     -1.85715507789694
  As  -0.61070490734045     -1.80955516924847     -3.32832604089020
  Se  1.69351697130655     -0.16062290195364      2.02120917037291
  F   -1.59288242151388      1.76269571883543      0.32313292371765
