4
Coordinates from ORCA-job orca E -820.448689924309
  Am  0.08098067834843      0.15792068269566     -0.20877470067176
  O   -0.64302717669377     -1.00287936736187     -1.43658771174024
  O   -0.71597053230194      1.77062618801620      0.11991381828468
  O   1.87450703064728     -0.10377750334999      0.08884859412732
