44
Coordinates from ORCA-job orca E -1686.086575094361
  Sm  -0.07665819088083     -0.48309728720391      0.24350386256878
  N   -2.48295483589072     -0.54848586373056     -0.57556923620288
  C   -3.03603799795620      0.76623215559939     -0.98321696805977
  C   -2.55976142187826      1.83022560544924     -0.01494248361458
  N   -1.07432575471795      1.90112214446228      0.01822923015852
  C   -0.48397752284148      2.59269180082594     -1.16403422189944
  C   0.26487266263419      1.63434634151895     -2.07333934043526
  N   1.31142434720387      0.92725606254361     -1.29555236834585
  H   -2.53788286946932     -1.21541954640825     -1.34141329853149
  H   -3.07114512853414     -0.95451635319774      0.14935324070734
  H   -4.12501835374661      0.75715936183819     -1.01527159045062
  H   -2.69112338916283      0.98294343844452     -1.99422291652772
  H   -2.90086343876572      1.58683156933843      0.99396628493659
  H   -2.98985150317126      2.79858885855186     -0.27800601848158
  H   -0.82818385220282      2.44381423917991      0.83897624593124
  H   0.20501565913789      3.36009509087882     -0.80837788632137
  H   -1.26045273911202      3.10815111302875     -1.73084109630569
  H   0.68291766508073      2.17874299584124     -2.92043078752703
  H   -0.40540134246536      0.87574199550169     -2.48948696216455
  H   1.99039598621645      1.59739447794662     -0.94603237571926
  H   1.81765737891316      0.29035091922952     -1.90541920626314
  C   1.80600069761297     -3.32471153783179     -0.03617099284200
  C   0.55981268368697     -2.73728729894564     -0.64843561886674
  O   0.69680446541536     -1.83596322288737     -1.52765113129778
  O   -0.49309647245548     -2.75617746364919      0.05886094616451
  N   2.08462362251718     -2.20253654811382      0.92583540292338
  H   2.60835560851953     -3.43680196430957     -0.75690973322750
  H   1.61499102682026     -4.25868799304993      0.48071898672476
  H   3.02530377905376     -1.85373406358643      0.78568392799227
  H   2.05301312250455     -2.55848247562522      1.87404198494358
  C   1.85442422164955      0.44451039076661      7.21727618333480
  C   2.56139494837429      1.14407199274281      6.24142065884009
  C   2.14250996596088      1.09383292720604      4.92930989264267
  C   1.00762341662363      0.33527094689671      4.60767879913870
  C   0.29499993398679     -0.36795359577998      5.58953950998195
  C   0.72690633961319     -0.30834513173167      6.89749644704529
  C   0.57267334531810      0.27144812663231      3.25634992845104
  O   -0.43961737994093     -0.35384556589256      2.77588441220431
  O   1.08876530007103      0.82462920776723      2.22264758779910
  H   2.18795698306915      0.48763585412004      8.24524079761905
  H   3.43169349247645      1.72313274124534      6.51334588260269
  H   2.67614638834086      1.63266554827895      4.15737510075335
  H   -0.57921063221116     -0.94634600559515      5.32083910693821
  H   0.19407978460227     -0.84159398829620      7.67104981268174
