37
Coordinates from ORCA-job orca E -1532.258611682871
  La  -0.70836572236829     -1.84684684510836      0.66950246436612
  C   -2.12137568384856      4.99890304354015     -0.94348563348678
  C   -2.12667890594904      4.62124996542702      0.39376254789008
  C   -2.10216812308989      3.27648493260512      0.73522035772909
  C   -2.07729773783830      2.30228385458009     -0.25510545811328
  C   -2.07225210772125      2.68252473598835     -1.59120832734374
  C   -2.09473561896324      4.02687285122878     -1.93586359862003
  C   -1.99445959852399      0.83226573117456      0.12336893066666
  O   -1.94621433359817     -0.00192611867750     -0.81459133212136
  O   -1.91138145960853      0.55103423698298      1.33930667273963
  H   -2.13397247569884      6.04897736961213     -1.21165091030720
  H   -2.14062540268190      5.37743551958112      1.16976078971375
  H   -2.08649156424838      2.94753920993745      1.76592845400911
  H   -2.03601076241035      1.90033741603290     -2.33782836589666
  H   -2.08320078132877      4.31913197891728     -2.97922770214827
  C   -3.62071590713261     -3.93972068129036      1.21797215420902
  O   -2.54008093869118     -3.10441737794392      1.11637143228156
  H   -4.50707645418261     -3.55446007753418      0.68211428911286
  H   -3.93899626860591     -4.09433321691204      2.26500984771470
  H   -3.42061409028095     -4.94266119028284      0.80308768312285
  C   0.75221378057568     -0.87065250909820      4.04155246149353
  N   0.32979007319367     -1.24794463135810      3.02089315201876
  O   0.25238844759467     -2.15935782543062     -1.56310697442419
  S   1.38663105683151     -3.19837369733401     -1.23933966967829
  O   1.04528807291146     -3.47112202314316      0.26228780821235
  O   1.10322140439395     -4.42960586973085     -2.00796103277011
  C   1.78141326986224      2.97215360884155     -0.53547493183815
  C   1.56805687352930      2.65905117521054      0.79726030274326
  C   1.15647343090045      1.37422029816495      1.12130034899073
  N   0.96103120636533      0.43173651351168      0.19983313025958
  C   1.17647424929174      0.72835203718769     -1.08282736216816
  C   1.58966381779117      1.98894171515887     -1.49215303158132
  H   2.08297424460546      3.97201579425429     -0.82485835338135
  H   1.69780260939473      3.39598759104584      1.57825037858560
  H   0.95781973008908      1.07505038864230      2.14366803468055
  H   0.98446333434336     -0.08632497312681     -1.77482059974897
  H   1.73790833509728      2.19089706934498     -2.54444795691188
