4
Coordinates from ORCA-job orca E -8504.027777772642
  Es  0.08259456507850      0.09153675653433     -0.16080577161024
  Br  -1.05231350597712     -1.47526218544271     -1.89374576180651
  Br  -1.05427607541342      2.38012533046189      0.29336320432359
  Br  2.62048501631205     -0.17450990155351      0.32458832909316
