23
Coordinates from ORCA-job orca E -1314.160202052163
  Nd  -0.53952222014797      1.26036862763849      0.67656520766806
  C   2.81085639387679      0.37765493976695      1.37573848962685
  C   2.03836455145226      0.83948084928593      2.61261706424482
  O   2.71368963306823      0.90458550284923      3.68590269734944
  O   0.83701364203159      1.14310296837613      2.56103329932527
  N   1.83784365128971      0.10653353979664      0.29756063278261
  H   3.42788317009199     -0.48390746647865      1.62654228902801
  H   3.48386990629990      1.19272889370436      1.10474169988774
  H   1.78992595864891     -0.89828219824496      0.14445041962173
  H   2.20419506115342      0.48582875203402     -0.57422115959048
  C   -4.84657779683710     -0.80505454641416      0.79242205323789
  C   -3.57581899141780     -0.45035538972077      1.22229939969588
  N   -2.74276585518362      0.20795748041347      0.40458295342929
  C   -3.18599978863073      0.50583929380997     -0.82830329186807
  C   -4.45703654765598      0.13865256508611     -1.23904872403058
  N   -5.28001769624911     -0.51353440527289     -0.42737466211798
  H   -5.52335511053019     -1.33314058273399      1.45129432616219
  H   -3.23129829771699     -0.69182953527704      2.21899678264237
  H   -2.52219181204801      1.04152630041547     -1.50602654731998
  H   -4.81207160881132      0.37540389844102     -2.23343218870655
  N   -0.01861998982657      3.48739700895307     -0.89455479169007
  O   -0.47528473691545      3.54013044893562      0.27982176128092
  O   0.07691848405811      2.28771305463593     -1.30640771065943
