43
Coordinates from ORCA-job orca E -3443.735746007137
  Er  0.18314752743711     -1.29920699935430      0.15191007582414
  C   2.13641187016643      5.26863949635657     -0.54532336908913
  C   1.09552408146832      4.48694836172317     -0.89236078217722
  C   0.95925228380760      3.09594184243951     -0.35411079498557
  C   2.28698842719887      2.52704502858530      0.02002690761796
  C   3.31754409877744      3.40990056891589      0.42171570657370
  C   3.25174019511505      4.75635664189965      0.20197440414442
  C   2.43131788876441      1.12502319583147      0.05798680971045
  O   1.69950953592365      0.30267656745566     -0.53120342984418
  O   3.45554012094873      0.58141878225334      0.77838853953103
  H   2.16168995602468      6.30336789567939     -0.87737474758638
  H   0.29134664215902      4.88060841017886     -1.50567523460701
  H   0.44054957282023      2.43589063333531     -1.04988657522857
  H   4.22300296982085      3.00181937006223      0.85957446383655
  H   4.06882202406467      5.40725490234651      0.48452328736240
  H   3.62389584777912      1.16227867202752      1.53059659875313
  C   -2.67006861662363      2.65095714531917     -0.61133571667176
  P   -2.48869050472198      0.93671420530839     -0.09032711622994
  O   -1.20703608265626      0.34790334831310     -0.62120826882712
  C   -3.92574862658786      0.07134821629886     -0.71483432234799
  C   -2.57370063384620      0.93065401286366      1.69605492574186
  H   -1.87630501025035      3.23553668279801     -0.14683928118611
  H   -3.64722241003725      3.03234546440258     -0.31054881590776
  H   -2.58084144416536      2.70032142736646     -1.69680102784516
  H   -4.83957031846435      0.48741531536041     -0.28671948924124
  H   -3.82705151741743     -0.99339904726894     -0.45900675593160
  H   -3.94889204891297      0.17678771940644     -1.80042942764391
  H   -3.51107632908253      1.37339572575901      2.03637587733233
  H   -1.72402590542403      1.50245010482979      2.06950421571283
  H   -2.48909900090539     -0.10684906699759      2.02628042841741
  O   -1.52243883362184     -2.09207145157006      1.38694937663730
  S   -2.03108155533037     -3.20831598028720      0.40573443600710
  O   -1.13081977013571     -2.83093401396349     -0.81705013619860
  O   -3.43949117506145     -2.88309206050006      0.06113472409970
  O   0.07034878322922      3.13217022309116      0.82454680890380
  H   0.64626102562106      3.07703516575429      1.59836551380696
  S   1.87166078931993      1.81329693881464      3.80480187887488
  C   1.13934229714431      0.66508884499478      2.88545297105030
  N   0.63174583808564     -0.12977958765974      2.20083025493821
  N   2.25040042072717     -3.20448452078489     -0.23551577547108
  O   1.76612185930958     -2.93498531391215      0.90779455747234
  O   1.78834902736564     -2.55004835539267     -1.20548229737845
  O   3.11213045884794     -4.04881865196034     -0.37690377364555
