7
Coordinates from ORCA-job orca E -768.488786103188
  Gd  -0.00000426647721     -0.00000286593694     -0.00000970477327
  H   -0.00000763610714      0.00000001124408      1.96378584350001
  H   -0.00001485125003      0.00001643573947     -1.96381087687357
  H   -0.00000121635795     -2.04944324716421      0.00001416142928
  H   -0.00000675525014      2.04942928303545      0.00000778058611
  H   -2.04942084887597     -0.00000203925748      0.00000276064452
  H   2.04946557431844     -0.00000757766039      0.00000003548692
