4
Coordinates from ORCA-job orca E -897.812362389113
  Cf  0.38186815245416      0.77926537874395      0.87306500339393
  Be  0.46615001446443     -1.22123029678993     -1.93082110135521
  O   -0.93427415222796      1.88249768947972      0.28195796026182
  O   0.68274598530937     -0.61864277143374     -0.66080186230053
