5
Coordinates from ORCA-job orca E -655.009765323207
  Cm  -0.76774537458769      0.30500470255719     -0.31026046348122
  Li  2.39778674708094     -0.00110067431713      0.42849852984046
  Li  0.28707740349446     -2.24314920012619      0.60225776669104
  H   -0.38938902427721     -1.65725089592052     -0.92690710663136
  H   -0.83323975171051     -1.05054393219333      1.27847127358107
