4
Coordinates from ORCA-job orca E -3763.074835987861
  Dy  0.30804704324693      0.17524679377835     -0.24099915993611
  Ge  -1.35033109271373     -1.64647086635648     -2.07203691211636
  Cl  -1.11398275800379      2.42326713933720      0.32901689435492
  P   2.75275680747059     -0.13015306675906      0.54741917769756
