4
Coordinates from ORCA-job orca E -1075.494467319517
  La  0.33393575366531      0.28778605012585     -0.24690185212324
  Al  -1.45039590678632     -1.66634099850478     -2.09677766511373
  P   -1.20624967866771      2.29668442917636      0.33351523090188
  Cl  2.91919983178873     -0.09623948079743      0.57356428633509
