20
Coordinates from ORCA-job orca E -1470.126524418899
  Pm  0.67149997037070     -0.42210207961182      0.93616147251083
  C   2.58546424128323     -1.47001793820455     -0.77456461004082
  O   3.37469409918115     -1.84798010116518     -1.45798551551540
  C   -4.15879333080170     -0.68724910502167     -0.55816166770138
  P   -3.07820398114134      0.44077781476248      0.28186531107196
  O   -1.65863329873808     -0.03808127681701      0.49986045898103
  C   -2.82773828534970      1.96339497321199     -1.18700060627591
  C   -3.80302110486601      1.36445929943528      1.61162996944190
  H   -3.68245860908264     -1.13068599552544     -1.43255868949933
  H   -5.08335783810250     -0.17636144821220     -0.83600208434240
  H   -4.39552711073932     -1.47623775074272      0.17029136667948
  H   -3.86953231736353      2.28566548245165     -1.20922658314586
  H   -2.47267344589474      1.38129343945407     -2.03333901307749
  H   -2.11426992321664      2.61532776642535     -0.68909034156961
  H   -4.75972784023826      1.78133704686603      1.28865927382022
  H   -3.13962127358948      2.15558834287580      1.96240965709867
  H   -3.98720903674011      0.64871320520070      2.42458759643441
  C   1.71320559043160     -0.12035945462469      3.48776420986472
  O   2.16520928193542      0.05699476605512      4.48634701820508
  F   0.92199421266217      1.44042301318676      0.51915277705981
