40
Coordinates from ORCA-job orca E -1380.914960260735
  Ce  0.29908094539802     -0.55801177233865     -0.37233752215578
  N   0.71047843108258      1.16982488957032      1.43122426799147
  C   1.22472779700092      0.54537294398833      2.69134896194883
  C   0.33910305491045     -0.61742619008838      3.07312091329905
  N   0.34620982259524     -1.63775526338647      1.97427448345130
  H   1.38677196925571      1.86503629401363      1.11638588609092
  H   -0.12173331792600      1.71391875826451      1.65845750942758
  H   1.25941828563602      1.27516195071739      3.49905076691334
  H   2.24578289934267      0.21037169595460      2.50741366556650
  H   -0.68996936451663     -0.28634401959859      3.22116371408763
  H   0.67422846546059     -1.05687000674155      4.01160840466150
  H   -0.35409778982533     -2.34572450713477      2.19078184852316
  H   1.23111014501701     -2.14340950229877      2.02778357889241
  N   0.07970401794552      0.67429291635781     -2.48819785317780
  C   1.09476497789466      0.70484757329864     -3.37289875688165
  C   1.03022743299186      1.39356649915052     -4.56784991144940
  C   -0.12953928669959      2.08901986998068     -4.86481978169976
  C   -1.18715648427184      2.06337285461588     -3.96176235041066
  C   -1.06084935855596      1.34921116993591     -2.78764359708749
  C   -2.14347854834590      1.24997198515126     -1.78008282878275
  C   -3.39193166002476      1.83199110781340     -1.91305008582118
  C   -4.33788565448602      1.65548835143901     -0.91151801942053
  C   -4.02381560011122      0.89606914961487      0.20970333559788
  C   -2.76273954310414      0.34804522353085      0.28029096281796
  N   -1.84098091903409      0.51923505524111     -0.68391446618737
  H   1.98684376260282      0.15487893555596     -3.10758964969568
  H   1.87383604137157      1.38339752061604     -5.24256864702571
  H   -0.21792460930921      2.64582970261605     -5.78794533722457
  H   -2.09530042141677      2.60038757337556     -4.18863736482446
  H   -3.64134439434998      2.41632873998541     -2.78538908573174
  H   -5.31690774165544      2.10555682881180     -1.00867745780838
  H   -4.73853315212661      0.73423574499260      1.00332214957532
  H   -2.47274172780779     -0.25591834792207      1.13801459841212
  N   2.33973144341718     -0.67269767241737     -0.58140569486639
  N   3.58565815171991     -0.69889310992617     -0.70697794355522
  N   4.68847392259723     -0.72401340181259     -0.81963328766120
  N   -0.17048332820817     -2.94743926785075     -1.21307946014398
  H   -1.01874048731613     -3.41266072815770     -0.88921868388021
  H   0.58482965809639     -3.59841592322032     -0.99592184023809
  H   -0.24132783524451     -2.97573362169825     -2.23172542152669
