12
Coordinates from ORCA-job orca E -1925.087462048915
  Gd  0.05633133791077      0.15047840540708      0.79135738572604
  S   3.95070953818772     -0.57353616975582     -2.42692013977701
  C   2.74835339978941     -0.33136297967844     -1.37982593231161
  N   1.87257423212324     -0.15464842580451     -0.61473113290086
  C   0.42334718101411      2.88590875223557      2.91812138723960
  N   0.30287534556365      1.98216987527120      2.18576230318076
  Cl  -0.48259298707552     -1.95984872511564      2.11739379912784
  C   -2.87724672405672      0.21114813114490     -0.71910025128674
  O   -1.55745724908049      0.52639407635217     -0.40200322776948
  H   -2.98070869957719      0.00147329323237     -1.78967020399754
  H   -3.54792062147883      1.04353737633834     -0.47801169554625
  H   -3.23147078376795     -0.67084065374789     -0.17277067274811
