5
Coordinates from ORCA-job orca E -2250.671473433600
  Sm  0.42065737775545      0.10145167195698     -1.03975954344154
  S   2.02306994108819      0.00416269366928      1.20135369131134
  S   1.00764130907350     -1.79690096864424      0.97602164185800
  S   -1.69902212887919     -1.65958630403047     -1.00448405555819
  S   -1.05785649903795     -1.29616709295154      0.93892826583039
