6
Coordinates from ORCA-job orca E -563.498925754785
  Pu  -0.14233318656733     -0.31621548888301     -0.62180145643995
  Li  0.43459531976013      1.00728296600372      1.96459358172735
  H   0.25769159121114      0.55496180009535     -2.43353382623034
  H   -0.95183864634547     -2.19328093016350     -0.79927605198628
  H   1.35998008274376     -0.03975736750822      0.94805990162953
  H   -0.95808516080224      0.98700902045567      0.94196785129968
