8
Coordinates from ORCA-job orca E -3546.014355026613
  Eu  0.01240673830164      0.75074578300661      0.83653099241067
  C   2.01553917016987     -0.26500017115759     -0.24007426632914
  N   2.94781196819264     -0.71544439135949     -0.75877779070943
  C   -1.98507853176259     -0.26262769558321     -0.25010185439458
  N   -2.92528398055771     -0.71249051465810     -0.75477498398714
  Br  -0.02288167913802      0.32310285549355      3.56909181706348
  O   0.02344210866478      2.74591230760212      0.32457880844756
  H   0.02232119780677      3.67170629108614      0.10897052776567
