31
Coordinates from ORCA-job orca E -698.348065253214
  La  -0.25100656727943      1.01967718641798      0.42160470277972
  N   0.41043679423869      0.50593244085758      2.72918329890361
  C   -0.46847151119922      0.68827955597859      3.73487675953432
  C   -0.15658291735130      0.45144778087506      5.05589255504099
  C   1.12368702115224      0.00510646543008      5.35015504947612
  C   2.03834363491383     -0.18930141402541      4.32069770296878
  C   1.66291050002349      0.06598795072718      3.01583913894019
  C   2.57018089372142     -0.11698483335076      1.85228433818212
  C   3.87364592430151     -0.56104147752403      1.96566311319848
  C   4.65187551040287     -0.70811869155146      0.82246748710473
  C   4.11128109653702     -0.40818123793211     -0.41969917646683
  C   2.80601155171199      0.03039409815526     -0.46505524657532
  N   2.04298255912027      0.17798720138299      0.63626857865168
  H   -1.46397656118205      1.03670022113098      3.46957399933037
  H   -0.89467525356753      0.61173825291798      5.82830775294754
  H   1.41295035614735     -0.19278945956457      6.37377508699346
  H   3.03265155928030     -0.53761500215887      4.55383905947447
  H   4.29777579422564     -0.79615749632264      2.92956761945993
  H   5.67318382836180     -1.05546953095002      0.90546455661508
  H   4.68459575649131     -0.51156301524953     -1.32950292517079
  H   2.35063027054835      0.27131631143213     -1.42295580380838
  N   -0.37557342812827      3.62822662626000     -0.04155917527918
  H   0.09038250277734      3.93660291305968     -0.89774883633981
  H   0.05498164808534      4.20128112511489      0.68727820966502
  H   -1.31857134002755      4.01311652651972     -0.12947035512587
  C   -1.70265429814005     -2.11567236159623     -0.22428249280405
  O   -1.77319051707140     -0.65408909697101     -0.49207996818689
  H   -2.62498074110217     -2.42557696507982      0.25561518898702
  H   -0.85758983515630     -2.27527416616948      0.44181436000807
  H   -1.54486266492225     -2.63338334723680     -1.16453198286494
  H   -2.52457156691340     -0.50947656057739     -1.08518259563976
