19
Coordinates from ORCA-job orca E -6182.793881278929
  Sm         -0.19144240476043      0.15927697784835     -0.31820918904908
  N          -0.21477077349695     -0.12845329271532      2.25586463600971
  C           1.06946004203808     -0.59561768554563      2.80489849997855
  C           1.64196417814172     -1.70239643507645      1.92435325636765
  N           1.80212756684814     -1.21352816021447      0.54468716356231
  H          -0.48997657072344      0.76668375919596      2.64741312132289
  H          -0.96168160996161     -0.79820742742984      2.42149593144222
  H           0.98642931773204     -0.96786234668239      3.83883614298335
  H           1.75423715674610      0.26138894860431      2.80734908883758
  H           0.94020416652081     -2.54474740316960      1.89114268386380
  H           2.58616380243662     -2.06049470580619      2.36537012306433
  H           1.92552914733425     -1.97320998461194     -0.11747586525455
  H           2.59004906171770     -0.57666907616769      0.45737895547153
  C          -3.07582064718221      1.97464375950773      0.61227660427942
  N          -2.14824343036729      1.42089981243758      0.14745546245018
  C           1.55083437796203     -0.71514698225936     -3.27699877737910
  N           0.87706130484421     -0.38286382563269     -2.37230471667909
  Br          1.58395585814252      2.23857067028917      0.46652160628520
  Br         -1.40037817312403     -2.40446862663042     -0.04735055498042
