7
Coordinates from ORCA-job orca E -6114.125813755201
  Lr  0.36342380874915      0.03923021234579      1.32817693399886
  H   -0.14233410546207     -0.83883248757921      3.62396597517257
  B   -0.34760690981892     -0.77839597203689     -0.86628681887739
  Al  -0.48682976278579     -2.44108982425762     -2.17404231999061
  In  0.38163829674308      1.39661703468070     -2.10056063863941
  Ge  -1.90185152817039      0.93787148754892     -0.19399769602009
  Br  2.13357020074494      1.68458954929832      0.38273456435608
