49
Coordinates from ORCA-job orca E -3550.224098140263
  Ce  0.10682823385752      0.58993856546737      0.19945766704969
  F   -1.64102062481997      0.84422842452038      4.98547175247371
  P   -0.69859444219441      0.03378238940796      4.03993268668430
  F   -0.78109370258118      1.05609133456040      2.79823901499222
  F   -1.77405077517463     -0.98088478002304      3.49305091587531
  C   -3.81130661190668      0.92443865407812      1.41409066058951
  P   -2.82869185990915     -0.12164655344142      0.29619516012029
  C   -3.53682537399011      0.27913545153734     -1.33625969345610
  C   -3.45860124073479     -1.80332663866512      0.60339764836031
  H   -4.87676041589060      0.80835955420667      1.21495555616070
  H   -3.52281773155137      1.96439652142241      1.26725111444533
  H   -3.61647294337107      0.65403757087333      2.45012607965057
  H   -4.62272421623887      0.18425643048620     -1.32671050410419
  H   -3.12913426194724     -0.40064296070339     -2.08407692664582
  H   -3.27256493027253      1.30284509233948     -1.60163345271182
  H   -4.54089279052663     -1.84488136160437      0.47903802113747
  H   -3.20982737936356     -2.10957638709517      1.61818113177495
  H   -2.99466990287616     -2.50368212538221     -0.09059285823232
  F   4.83077682245767     -1.16240291371051     -0.16768063059632
  P   3.41516206674178     -1.40272274551439      0.45203419182151
  F   3.60137697798438     -0.55130580315682      1.76113288986412
  F   2.67531743357529     -0.24038053862808     -0.39836238010243
  C   -0.78561740250931      1.09346230829546     -3.94237051037940
  P   0.20962133171651     -0.24017449988406     -3.28916513461424
  O   -0.08584895435299     -0.50683680617341     -1.81000317417908
  C   -0.15900167796413     -1.71096275205809     -4.23801653236378
  C   1.92422228879453      0.18063448355475     -3.56173623467668
  H   -0.57097447811286      1.23409661967761     -5.00154065801840
  H   -0.55214007778147      2.01067049224787     -3.40392685530807
  H   -1.84212394013142      0.85882060155916     -3.82218495684145
  H   0.05297725748823     -1.54860427524009     -5.29414102642825
  H   -1.21114861719247     -1.96632024119926     -4.11937415867794
  H   0.44802637004319     -2.53815755944987     -3.87303833469768
  H   2.10147975209578      0.34913441100986     -4.62369094445364
  H   2.56208648239508     -0.63258352016728     -3.21883864407320
  H   2.15378750873620      1.08766331188198     -3.00383930732192
  C   0.42655018829073     -2.48388878660166      1.74116860580037
  O   0.46959328200590     -1.14352786065130      1.28972309620707
  H   0.75799879860361     -3.16135903081865      0.95297924650036
  H   -0.58990227773026     -2.75402253021486      2.02772928465797
  H   1.07916535410961     -2.60974846220334      2.60800847983901
  N   1.78632671995110      1.98227310315492      1.59268330215336
  H   1.44416703006264      2.93882950579952      1.46029802722075
  H   2.70918417896543      1.96656321269298      1.17067698676712
  H   1.91529758163759      1.81908093731315      2.58446936187936
  O   0.60113563849335      4.23356174506690      0.10583258815986
  S   -0.12690773884866      3.34314568884347     -0.78082948369166
  O   -1.05910165547244      2.41671925719620      0.16445594316251
  O   0.87333472543912      2.15117346539288     -1.18076701177306
