39
Coordinates from ORCA-job orca E -1760.071998891900
  Eu  -0.67869775060995     -1.05551528785008      0.63833810938163
  C   0.95065000993431      0.16323423146096     -1.22894212173056
  O   1.54353543649882      0.65381618374655     -2.03509580845322
  C   -2.33439173374274     -2.55236784210516      2.27901574993496
  O   -3.06300695411980     -3.18051083937472      2.84140753813737
  C   -4.23343822739919     -2.34196107062788     -1.04196464932897
  C   -3.14319802962497     -1.50514695249059     -1.67292622031581
  O   -2.07164211502871     -1.28862843686476     -0.75216727016450
  H   -5.04111068399205     -2.50264297502638     -1.75438345721620
  H   -4.65441834372791     -1.84120725367807     -0.16959872640944
  H   -3.85389682304109     -3.32074866964463     -0.74517005165315
  H   -3.52524416797998     -0.52932450963659     -1.97330185390767
  H   -2.73493125677116     -1.99283553497606     -2.55857498310165
  C   -1.10633399837862      4.33721303136201      5.43502345916200
  C   -1.01026360202048      2.95276419873257      5.51526242715486
  C   -0.75853498074756      2.21471981479595      4.37575653610876
  C   -0.58795305159244      2.86587818374747      3.14967453550973
  C   -0.68942496311829      4.26112662037811      3.07604101523194
  C   -0.95125370581988      4.99136043897164      4.21751507635582
  C   -0.30736503870608      2.06729027283480      1.97020653155889
  O   -0.43908908776186      0.82373937195906      1.92843082529948
  O   0.11587504935173      2.62226044634735      0.85513946063026
  H   -1.30689781928955      4.91314905956501      6.32786102324862
  H   -1.13091915671417      2.45597067290311      6.46694401230271
  H   -0.67425010327878      1.13903157721282      4.42796498043297
  H   -0.60711208663075      4.79525641448615      2.13617902801341
  H   -1.04102529654678      6.06634967608515      4.16231594400129
  H   0.26635715771645      3.57256252090533      0.95327584166210
  C   2.37400483549633     -5.26342176710603      0.15153315145302
  C   1.17672386570375     -5.13183306527039     -0.53720748343945
  C   0.42282595448944     -3.99311812643631     -0.34285114964586
  N   0.80257529826623     -3.00363225245514      0.48850853143388
  C   1.96586745779148     -3.14258934619646      1.15057493805326
  C   2.77525473221795     -4.24970623301423      1.01121379449677
  H   2.98751521596521     -6.14397242991466      0.02023938353756
  H   0.83052917720768     -5.89754687866921     -1.21540448592286
  H   -0.51632525511949     -3.85503672056604     -0.86691296286061
  H   2.25330260217262     -2.33496792551341      1.81444049780357
  H   3.70010743895064     -4.31480859807699      1.56483883324433
