5
Coordinates from ORCA-job orca E -3085.465303849280
  Th  -0.21306355839675     -1.51476891454563      1.69144978807138
  Ga  1.46802394535594      0.20268486126452     -0.20666112397911
  N   0.30939311976831     -1.27542156264091     -0.33021313053606
  K   0.26860199774511     -2.01567879546919     -2.88596199770540
  F   -1.13846550447260     -0.04385558860878      2.80344646414919
