6
Coordinates from ORCA-job orca E -2776.375269065018
  U   0.08945559622683      0.15457695365463      0.00118027753817
  Cl  0.25371576984806      0.44007662444194      2.43145774816042
  Cl  0.26670655906607      0.46262838078285     -2.42602088651605
  Cl  -1.12447071062937     -1.95231401614963     -0.01289678451112
  Cl  2.36681864609801     -0.75810846417797      0.00238313922963
  Cl  -1.85221586060960      1.65314052144819      0.00390650609897
