4
Coordinates from ORCA-job orca E -1264.532952831444
  Tm  2.00798801684227      0.30528724417690      1.27322124244119
  B   -0.50895020513231      0.17532896845163     -0.96198897639039
  F   -1.50420282575390      0.14450855856164     -1.79962017252881
  N   0.45631393363132      0.20341202885070     -0.14869192588920
