4
Coordinates from ORCA-job orca E -883.367925260142
  Sm  0.33927640230101     -0.12201830390628     -0.44703906221545
  O   -0.96475567187208     -0.82273007961457     -1.36671156342704
  O   -0.65464651017629      1.60481726560880      0.03101534293405
  O   1.87661577974736      0.16182111791206      0.34613528270844
