6
Coordinates from ORCA-job orca E -901.672110152990
  Dy  -0.29713701838568     -0.04163588338741      0.48748921052252
  Li  1.47400163832750     -0.18447573996404      2.90863899368705
  Li  -1.17855891887907      0.14765128879818     -2.26350448005807
  H   -0.80689469910927     -1.20453995745520     -1.25781617403447
  H   1.69005401702573     -0.06269061735368      1.18241499551310
  H   -0.88145501897922      1.34569090936215     -1.05721254563011
