4
Coordinates from ORCA-job orca E -1164.824925411639
  Nd  -0.07387930824705      0.02877655039591     -0.41589473170707
  C   -0.98114029672836     -1.39632919311797     -1.61748917737856
  Te  -1.40902791604203      2.61029008100405      0.31346668091575
  I   3.06053752101742     -0.42084743828199      0.28331722816988
