4
Coordinates from ORCA-job orca E -1959.858669440931
  Gd  0.01658161797918      0.01998879466066      0.03986630123462
  S   -0.94533294010325     -1.36124457779172     -1.88428371134045
  S   -1.04213711003054      2.34904854372967      0.20042287743731
  S   2.56737843215462     -0.18590276059861      0.20739453266851
