42
Coordinates from ORCA-job orca E -1706.914161774989
  Th         -0.31876817569015      0.20101510508317     -0.38131822777302
  N           0.75741880702215     -2.21668207070418      0.14980446990160
  C           0.50919999783281     -3.32653076231274     -0.81147335864009
  C          -0.77486424295804     -3.06361966799460     -1.57967154529979
  N          -0.77379922417688     -1.70974853073384     -2.19385085538330
  C           0.04501674446894     -1.58661904362703     -3.43503725159811
  C           1.44056880668953     -1.03340083515215     -3.17691429085833
  N           1.34926886382151      0.26964289752062     -2.47050502258159
  H           1.73791657340657     -2.20028043965786      0.42131546757052
  H           0.25258795686305     -2.39991683386791      1.01633327054639
  H           0.43560579366751     -4.29750490352762     -0.30517605073654
  H           1.36266705931290     -3.39399110053942     -1.49298854120750
  H          -1.62987378874171     -3.10797128735186     -0.89434573903765
  H          -0.91785366703622     -3.84785353985082     -2.33763782558050
  H          -1.73525528150133     -1.48604854637001     -2.44846339490754
  H          -0.48472976453409     -0.90222918441609     -4.10848797720070
  H           0.12500860713107     -2.55511130263298     -3.94872347569869
  H           1.96516916906654     -0.94335027902865     -4.13805428161142
  H           2.03378859115495     -1.70970913500216     -2.55317112542001
  H           0.95510188564790      0.96809778413956     -3.10139318240854
  H           2.28002503296892      0.59497430277364     -2.21692179353593
  N          -2.05013062043850     -0.77871374678171      0.66900607215933
  N          -2.99685519179865     -1.27630795920339      1.23951391584124
  N          -3.88628160550323     -1.74158530030288      1.77266496755753
  C          -0.14530425448706      3.61811661485265      0.30821522431842
  C          -1.24501489216269      4.63687420240226      0.53633524903538
  C          -1.92624459306160      4.10167811238934      1.80066265888071
  C          -1.94804230566045      2.60308689363032      1.55470093410274
  O          -0.72944293381683      2.33971842841787      0.75523981069966
  H           0.74354509948914      3.80513721238846      0.92128208478917
  H           0.13770741273608      3.50367750745736     -0.74417556996249
  H          -1.94155098938853      4.63586636944314     -0.30904093050789
  H          -0.84342681624008      5.64528051151713      0.66201268320746
  H          -2.93442023398291      4.49935106687799      1.93973497222592
  H          -1.33360458285337      4.33848098883421      2.69072867995343
  H          -2.80736197132302      2.29474266506728      0.94784731180994
  H          -1.87966428852494      1.99191465753066      2.45821589106457
  I          -2.00835565792852      1.65993162061174     -2.50759839679393
  N           1.86566159310817      0.71654752561662      1.53020127330661
  O           2.72116701706437      1.05485141147858      2.28945263335702
  O           1.93543267033205      0.95948114646537      0.24515217041140
  O           0.80390740002473      0.08578744455983      1.88019909600468
