4
Coordinates from ORCA-job orca E -2636.006264034173
  Np  -0.07715533066003      0.66524057142035     -0.08790224190235
  C   0.49902974642693     -0.90869165618520     -0.96040578921301
  Ge  -2.12753927929040      2.36192597671766      0.03056502395763
  Li  2.30215486352349     -1.29658489195281     -0.41885699284228
