16
Coordinates from ORCA-job orca E -1836.206480975478
  Tm  -0.02537250989326     -0.21262756496845     -0.67087351047801
  C   2.43020368683684     -1.36072068832632      1.05557850666323
  C   2.49055129086489     -1.95432602924144     -0.35789282215651
  O   3.36297366019612     -2.72019864425494     -0.66382841368514
  O   1.49214564922246     -1.55928096004318     -1.11593774769318
  N   1.65619707145560     -0.09338598897564      1.06657573308772
  H   3.43766574669321     -1.24108191184193      1.44657866769845
  H   1.90692932718445     -2.08531593921822      1.67983176684705
  H   2.27922926004061      0.69032762376917      0.89560326099877
  H   1.25341132415823      0.07241210781177      1.98250265469155
  C   -0.41326470327091      2.40615397861409     -2.62913228712514
  N   -0.24602364408159      1.29986518286512     -2.28144345163427
  I   -2.11476348154006     -1.42324733791536      0.85419186841050
  O   -0.62954578389410      1.77354508029430      0.53470426635900
  H   -1.41716277810075      1.62795165746625      1.07295680794130
  H   -0.82897114273343      2.48276049244393     -0.09184311988653
