37
Coordinates from ORCA-job orca E -2728.510136706603
  Yb  0.06473378593011     -0.44310360125925      0.33803137295300
  N   -0.81865956854728      2.24385874202446      0.10606787548965
  O   -1.16755838776378      3.34123029442641     -0.25899426258550
  O   0.38976814704217      1.99240793552807      0.40971538436117
  O   -1.63748846282980      1.27644930575951      0.18977628992375
  I   0.09372841085951     -3.44880356214730      0.25257778995297
  C   0.38313892172906     -0.08040983088675      5.62729770058497
  C   0.26630031546381     -1.31697905166402      5.01482345477162
  C   0.21804362432060     -1.37396515871309      3.63238774467114
  N   0.28021652228480     -0.28204565506896      2.86150724299256
  C   0.39363921779530      0.90914579336162      3.46043435283488
  C   0.44881307831720      1.05474348614590      4.83500442267078
  H   0.42168508352008     -0.00159012132646      6.70532478980778
  H   0.21073703258188     -2.22889486072124      5.59102839792964
  H   0.12683418608072     -2.31905966629647      3.10996269583199
  H   0.44420476560787      1.76771496787358      2.80251517116418
  H   0.53906610673544      2.04021878666230      5.26795494749775
  C   -1.18437493162250     -1.62342771008400     -5.08555356430180
  O   -0.40173518659142     -0.94438042545957     -4.10190945268410
  P   -1.17709333403949     -0.39453690155958     -2.79147085253072
  O   -1.85661804837105      0.90931391699935     -3.47022259665126
  C   -2.93362284616694      1.56541371201506     -2.77839884524005
  O   0.15323655253349      0.23079137338433     -2.04746327994826
  C   1.05655993979318      1.12571004367433     -2.72726810957686
  H   -1.77917707048270     -0.91042458192915     -5.65551302015372
  H   -1.84210942905780     -2.36069711474129     -4.62103028665245
  H   -0.49125237585124     -2.13330008993387     -5.74775878304360
  H   -2.54897974479908      2.39960411705608     -2.19677075725462
  H   -3.44375501764867      0.87538617540089     -2.10575722216860
  H   -3.62768366102591      1.92222964954517     -3.53447083781905
  H   1.75803875132865      0.54698395920037     -3.32388332832381
  H   1.56889969999737      1.69811161248273     -1.95869739181846
  H   0.49548256729458      1.79972039144418     -3.37019718156777
  N   2.59652167469294     -0.65599310300169      0.14401454242748
  H   2.67190642502411     -1.66992823431696      0.17305779842996
  H   3.15444277595415     -0.28436611991902      0.90350029744532
  H   3.02801047991065     -0.34862847395572     -0.71962249941996
