4
Coordinates from ORCA-job orca E -1314.776566688148
  Er  0.15543999942595      0.21471359083599     -0.38030025463363
  F   -0.79113445304515     -1.13877294545395     -1.49375033043860
  F   -0.79439077609765      1.86298523086433      0.21618602196278
  F   2.02657522971684     -0.11703587624636      0.22126456310945
