42
Coordinates from ORCA-job orca E -2534.956608722641
  Lu         -0.26655430399767      0.18366514462947     -0.40402432988537
  N           0.63321562568912     -2.07828313091480      0.17361145965594
  C           0.33041584653038     -3.19913228777880     -0.74968098872583
  C          -0.93591562431888     -2.88689620173382     -1.53534919377648
  N          -0.86801427019057     -1.53815605124971     -2.13370641288937
  C          -0.06584757075008     -1.44642675610762     -3.37502197204649
  C           1.36311632297265     -0.97982227216433     -3.11167285032847
  N           1.33577466406195      0.25517514467463     -2.30380813547654
  H           1.62391388084508     -2.05934113005497      0.39788927124695
  H           0.16521735687345     -2.24085139033041      1.06510034202703
  H           0.19805097625197     -4.14902798392581     -0.21451789470714
  H           1.17809715852499     -3.33402911767474     -1.43014000149110
  H          -1.79813804827446     -2.90938921360474     -0.86107572760545
  H          -1.09245253610035     -3.66624113876999     -2.29862781526344
  H          -1.81244605645265     -1.21932355638219     -2.34033749925132
  H          -0.55433443599443     -0.71049066036451     -4.02442191000193
  H          -0.04548414864398     -2.40723569962124     -3.91231658128465
  H           1.87101585787089     -0.84314306001953     -4.07842655884682
  H           1.93321920523698     -1.73265497573837     -2.55641189713593
  H           0.96191388155393      1.02239781818752     -2.86358776528676
  H           2.27090868978270      0.51558238939619     -2.00383837203284
  N          -2.09469160489547     -0.63998779970442      0.52606345446748
  N          -2.20240017765599     -1.57510786474411      1.26771344484515
  N          -2.30455842709523     -2.49245972340139      1.95980382529125
  C          -0.05190036555000      3.49720348740041      0.24398064509059
  C          -1.12372726482150      4.55505807008733      0.45356267890596
  C          -1.91895138742378      3.98016297244087      1.63053285897467
  C          -1.95784209128591      2.49844948729315      1.29531099302018
  O          -0.68373708625804      2.23820148634311      0.62349620895669
  H           0.81729305420197      3.64435412352931      0.89758654344058
  H           0.27231916155308      3.41253349873032     -0.79849950978349
  H          -1.75685867518640      4.62330968236407     -0.43805332513343
  H          -0.69384268727764      5.53868286814136      0.66165032194683
  H          -2.92365070520131      4.40330816241880      1.71381229583424
  H          -1.38834617243756      4.15011567797843      2.57449235295888
  H          -2.76414739104690      2.25471778689396      0.59323360303036
  H          -2.00871306784838      1.83408129737340      2.16134276671330
  I          -1.79797785212797      1.78775691640169     -2.55228491427997
  N           1.59765591812546      0.67452993399803      1.63576588243558
  O           2.39347205853387      1.03644166953835      2.46955022413282
  O           1.81010367183082      0.85357026702032      0.36546022725613
  O           0.50074862039596      0.09578212944471      1.90951425500234
