34
Coordinates from ORCA-job orca E -2883.601571420498
  Yb  0.09367122426229      0.08887664232528     -0.64804628468973
  C   2.42883699822960     -0.10883848381981      1.68817010376289
  C   1.07881462305843      0.01915474510767      2.41877386733434
  O   1.09914498940128      0.15375590886814      3.63635954688689
  O   0.04681562176276      0.01120636477831      1.66117165912369
  N   2.29941062234766     -0.75858619336442      0.37315513912941
  H   3.13599790470508     -0.60684489239560      2.35337493227011
  H   2.78298779747310      0.90971690558900      1.51931580715090
  H   2.24098938251193     -1.76436034915813      0.47925699090271
  H   3.10457115243842     -0.56190847945074     -0.20729642766005
  C   0.82955622492659     -0.28372929029239     -4.05112973035811
  O   1.46556226628946     -0.21472234985166     -2.77841159168660
  H   1.56845891197334     -0.36778339722057     -4.85108428948780
  H   0.20987943098508      0.59817781446235     -4.22912983761614
  H   0.19642535554431     -1.16723385792635     -4.04452667692204
  H   1.87444297470686      0.66332622417332     -2.67877445031993
  I   1.70728801620665      2.75602950801148     -1.24008097183884
  C   -2.94404354392345     -0.99739213404001      1.64723456451537
  P   -3.05532662599444      0.56770136964820      0.78314698031985
  O   -2.10672901866547      0.73267706103969     -0.37265089970426
  C   -4.75421039900055      0.70485645525267      0.21347585979649
  C   -2.77469597312435      1.82945721974598      2.03125025155394
  H   -1.93042248484837     -1.08993610764351      2.03617762338338
  H   -3.16733918821495     -1.80275426852138      0.94979212041037
  H   -3.65985309904656     -1.01127817907942      2.47063755403660
  H   -5.45804109925797      0.61750747699175      1.04099298449271
  H   -4.91560251661285     -0.10503730011997     -0.49943944989845
  H   -4.89025549797420      1.66250752115890     -0.28738423087292
  H   -3.50708973103464      1.76337533558835      2.83573842164964
  H   -2.82123395256482      2.81361909891033      1.56666254758601
  H   -1.77224938128739      1.66199305293139      2.42860268458362
  S   -0.85148380976550     -2.49088929032354     -1.60247390017915
  C   -2.51029045858037     -2.29252146346006     -1.54259588509806
  N   -3.66428671692663     -2.16582266791525     -1.48956501255682
