7
Coordinates from ORCA-job orca E -16005.344429543928
  Nd  -0.00000127335027     -0.00000297520662     -0.00000177237640
  Br  -0.00149076192983      0.00024045111042      2.59591205733391
  Br  0.00149399435062     -0.00024310748323     -2.59591007203978
  Br  0.00422465130262     -2.59531945603438     -0.00024856751582
  Br  -0.00421464805228      2.59531643297273      0.00024649891978
  Br  -2.59583084455525      0.00422160693460      0.00149442713395
  Br  2.59582888223439     -0.00422295229354     -0.00150257145564
