22
Coordinates from ORCA-job orca E -1638.490978148493
  Tm  -0.32368446619028      0.72988298738376      0.55507082617278
  C   1.18321928733230      0.19296795661805      4.75292434406621
  C   1.27235805834208      0.22056610170338      3.25717979256784
  C   2.49157576088547     -0.03956306072851      2.62446106502589
  C   2.68985821439515     -0.01788888157921      1.23928665996896
  O   1.78182210530241      0.24714579975337      0.38557353742813
  C   4.04577224062508     -0.32073842299562      0.67655460317107
  O   0.18874394330665      0.49007203931369      2.64235183136885
  H   2.13067282976489     -0.05364953329792      5.22249901093766
  H   0.42573696893012     -0.53347224877447      5.04682151537809
  H   0.84505304277955      1.16941724022793      5.10006168979707
  H   3.34110156843358     -0.26703351216886      3.24848067216164
  H   4.78074812079913     -0.52732425704521      1.44877381577444
  H   4.37307904074274      0.52552650740752      0.07299110526416
  H   3.96338492625582     -1.17944676439077      0.01009395917308
  C   -2.34353279983134     -1.68833444058152     -0.67484603817732
  O   -1.50206080814295     -0.70689083802510     -0.15053567678795
  H   -2.95972016401546     -1.28499325889751     -1.48264035354803
  H   -3.01282212712327     -2.08083149850625      0.09550278227889
  H   -1.76573042465284     -2.52535660696899     -1.07644191157447
  C   -0.86795475301803      3.94926561542027     -0.33526496794168
  N   -0.76922056492087      2.83257907613197      0.00590173749456
