4
Coordinates from ORCA-job orca E -1334.323826764102
  Pa  -0.02732410458207     -0.04758119208112      0.07928071479346
  I   -1.11689389296369     -1.59880155141607     -2.11020275243430
  I   -1.11741081783605      2.62751929358154      0.29123751118990
  I   2.85811881538181     -0.15924655008436      0.30308452645094
