36
Coordinates from ORCA-job orca E -1314.962010791568
  Ce  -0.02168317690383     -0.31373433687749     -0.10648668217019
  C   -1.55216779831928      6.18762509697243     -0.92031907778795
  C   -1.39157469940413      5.37651593106895     -2.04892886652982
  C   -1.07817591625599      4.05157047455180     -1.88951154171964
  C   -0.92314146290557      3.53267535081148     -0.57684106863972
  C   -1.09089244921412      4.36531598698353      0.56099052642399
  C   -1.40411765785361      5.68693960634406      0.37833777426782
  C   -0.59885590140941      2.19246805667709     -0.40520902404485
  O   -0.42263138064838      1.58065324447846      0.76077803992103
  O   -0.41428002757262      1.31500269147234     -1.38787157187670
  H   -1.79903703433108      7.23291330893803     -1.05530179530024
  H   -1.51484800624102      5.79549300011422     -3.03689436310576
  H   -0.95082289671246      3.40640682211950     -2.74750494663549
  H   -0.97284782087671      3.95726878812136      1.55504146563644
  H   -1.53685743377731      6.34157686506278      1.22724172980434
  C   -4.25608881332791     -3.03325677848984      0.26604494639238
  C   -3.47122396262152     -3.31585780582313     -0.84827621234339
  C   -2.29012658710362     -2.63072584648601     -1.02349079125679
  N   -1.88194049639466     -1.69565871293197     -0.13647224159713
  C   -2.64992557713027     -1.42091971602056      0.94285489351853
  C   -3.83977581074041     -2.06793351863417      1.17951707701884
  H   -5.18818500789486     -3.56081223775881      0.42153690677782
  H   -3.77266711226805     -4.05823376590979     -1.57353956144180
  H   -1.65397791733691     -2.81875720713526     -1.88014827751203
  H   -2.29452203769510     -0.65184886037050      1.63156149356691
  H   -4.42811841288900     -1.82392383366320      2.05218662858627
  C   1.80086700782860      0.13457503305057      2.82857232375708
  O   1.18124536959768     -0.81068192152225      1.84534259046491
  H   2.86831670531053     -0.05688746569886      2.84955998193311
  H   1.33918620796111     -0.03900257886791      3.79470416067916
  H   1.58474406778225      1.13550014562974      2.47220171327075
  H   1.32818946204458     -1.70772396182316      2.18239162634134
  N   1.93040774701460     -0.81100720795679     -1.64084928622045
  H   1.83489665114855     -0.29832928009993     -2.52070027696915
  H   2.07914815465909     -1.78284217516517     -1.91992166232852
  H   2.83588402448109     -0.51456319116172     -1.27019663088110
