5
Coordinates from ORCA-job orca E -5606.553172305604
  Es  -0.91070077701075     -1.35419222219995      0.58108802274407
  Ga  1.93484224918505     -0.78170015563573     -0.83408350666033
  Se  1.65409297000809     -2.17883514505063      1.08643938787699
  S   -0.10475081234311     -0.22006041934369     -1.60173313390196
  F   -1.87899362983928     -0.11225205777000      1.84034922994123
