14
Coordinates from ORCA-job orca E -1904.623258781278
  Yb  -0.50183578951542      1.37096912884756      0.77305050935688
  C   2.50921534666037      0.45516125236002      1.42429631279965
  C   1.74608278117202      0.44271462517364      2.76873885678300
  O   2.38925952911522      0.17962501543175      3.77398982633675
  O   0.50581969585337      0.75576686662908      2.69251528655060
  N   1.63866401751481      0.15061442015797      0.26907139472897
  H   3.36444057255319     -0.21607508223733      1.50345846732241
  H   2.88747590397566      1.47045651072532      1.29112543315295
  H   1.49001291815900     -0.84894739879654      0.20015035381941
  H   2.07616880376747      0.45175999186919     -0.59292968606358
  N   -2.25016159865277      0.10432332946097      0.05239351282340
  N   -3.16203466746920     -0.56453925268657     -0.31348958006702
  N   -4.03873082279228     -1.20962110846759     -0.66686030511013
  I   0.59537878571393      3.84002836591648     -0.56199868062045
