19
Coordinates from ORCA-job orca E -6182.784351714510
  Sm         -0.13838807527547      0.50652818709630     -0.38161508950285
  N          -0.31962037599197     -0.09196066161677      2.12764811391297
  C           0.91723961307334     -0.67525338852868      2.67437983682320
  C           1.48056658289308     -1.70954397980972      1.70552316559984
  N           1.74557616816170     -1.08743588871652      0.39325114115335
  H          -0.58999628971451      0.75345021409062      2.61992909622131
  H          -1.09434575772456     -0.74920589571592      2.16583640275991
  H           0.76936296349942     -1.15376014543978      3.65621459007316
  H           1.63688847668381      0.14318058947350      2.80017790789063
  H           0.74362623851306     -2.50534837969117      1.54706405070952
  H           2.38128171846396     -2.16253316702289      2.14962934776399
  H           1.85524820897804     -1.78992658384272     -0.33154405960538
  H           2.58318085062132     -0.51172541777491      0.41732086372095
  C          -3.04338285901072      2.17473594496787      0.73692549653886
  N          -2.13599261083041      1.63636097020733      0.21738082187494
  C          -1.49585344993693     -2.77463844820933     -0.03894432164860
  N          -1.10862670843242     -1.70046285949152     -0.31573533879325
  Br          1.74525465726524      2.34719689465435      0.71641333633124
  Br          0.83175340506401      0.29012939016997     -2.98895441532380
