44
Coordinates from ORCA-job orca E -1798.026464684383
  Gd  -0.37030205132467      0.44450166949635      0.31753394677320
  N   -0.92731136575838     -2.02620317872565      0.17165248562687
  C   0.26807292054866     -2.83143465617160      0.48849401457270
  C   1.47196465218155     -2.29047901618212     -0.26470861974069
  N   1.76057023569816     -0.91318816490027      0.17598725554743
  H   -1.66316341620086     -2.21214247344433      0.84495300992074
  H   -1.29818088501257     -2.26506358784145     -0.74211093764916
  H   0.12409408518459     -3.88545196062491      0.24703263976103
  H   0.43958458137433     -2.75345733267169      1.56239711720837
  H   1.25997488335724     -2.25992947065577     -1.33475520508636
  H   2.32631458505501     -2.95268055638106     -0.11752902104127
  H   2.36874659471794     -0.43857698622998     -0.48207250934489
  H   2.22812201742428     -0.91420699950747      1.07683477684618
  C   -3.72282502099150      1.16568047485985     -2.73752814849494
  C   -2.31181853015335      1.07166065819912     -2.23445819605260
  C   -1.27486187241511      1.64860219350215     -2.98699789583228
  C   0.08959304687803      1.56956565610653     -2.69632556202675
  O   0.58681137766133      0.97848902853824     -1.67615225570803
  C   1.08251231173488      2.19589258554753     -3.63007838266677
  O   -2.14620374607882      0.44449302173718     -1.14122392049184
  H   -4.08606635088770      0.15879793734252     -2.94620730698027
  H   -3.80745062412600      1.76895632452411     -3.63632578324192
  H   -4.35862947523292      1.57735723033241     -1.95419057239896
  H   -1.55385716438112      2.16796545189554     -3.89027443040108
  H   0.60879833212244      2.67702207866425     -4.48033755841325
  H   1.76844604262447      1.42637204241354     -3.98463516563718
  H   1.67475683069172      2.92707552611705     -3.07961790508697
  C   1.74650753890554      0.77550578320204      6.97985849636578
  C   0.84036795938149     -0.20510747295760      6.59699331603987
  C   0.39749261687250     -0.26150633957656      5.28644032208925
  C   0.86241509751608      0.66882541416766      4.36059430409805
  C   1.76890902633397      1.65310976878318      4.74531346977878
  C   2.21122994846601      1.70324158162370      6.05652469110628
  C   0.38799370411665      0.60871485525635      2.95644337053527
  O   0.77116548421151      1.49475063328940      2.12205456441856
  O   -0.38234029356374     -0.32909551707261      2.58438082497319
  H   2.09135682186411      0.81776151447073      8.00406414503747
  H   0.48005441847024     -0.92211185875191      7.32140452544571
  H   -0.31051707206164     -1.01399213577102      4.96958415609844
  H   2.11789811317811      2.36661571215152      4.01241661723053
  H   2.91607900252391      2.46422834233192      6.36109131986543
  O   -1.29929672652250      2.69728837872386      0.77990005912739
  H   -2.03000932846158      3.25443286238834      0.50227770599457
  H   -0.81479830592226      3.15322098180080      1.47710224183379
