57
Coordinates from ORCA-job orca E -3442.716321870988
  Lu  -0.07899998731052     -1.12935347637959     -0.06058791349355
  C   -2.22739043145298      4.44358125616633      3.64561045386055
  C   -2.12452490047960      3.07958689790183      3.90667922817242
  C   -1.42634377748886      2.26929017442241      3.03756318873550
  C   -0.82457669373598      2.82897299003920      1.90210138251808
  C   -0.93055461395067      4.20152291036879      1.64323121692395
  C   -1.63427409961039      5.00313267750723      2.51967501193597
  C   -0.10997330372553      1.95602283241178      1.00652616722682
  O   0.42385574500209      2.55866040883272     -0.08884884315590
  O   0.03855554801747      0.74040766349798      1.15781816060691
  H   -2.77838026685198      5.07649224081235      4.32772373043151
  H   -2.59284015195357      2.66013336295517      4.78519353134580
  H   -1.33894792408782      1.20804326319910      3.22141658219981
  H   -0.47190795839265      4.62904956807263      0.76427497107148
  H   -1.72513027721452      6.06235736474748      2.32863547629430
  C   5.27548069907850      0.39210259365410      3.78489049317883
  C   5.97949999502433     -0.44901142957198      2.93238863971428
  C   5.29946973470302     -1.19735922893100      1.99004357788440
  C   3.90823387295452     -1.10038693507197      1.89523223857340
  C   3.20816407628780     -0.24165864793536      2.74586203166548
  C   3.89239146023175      0.49637975946775      3.69223956154781
  C   3.15220187066117     -1.87780421709611      0.91407490757394
  O   1.97128374628167     -1.63915851498496      0.62301642508882
  O   3.70806402084455     -2.89105828644229      0.28677648735016
  H   5.80957258315129      0.97151199512651      4.52508010662516
  H   7.05545204498254     -0.51639699131715      3.00068987964727
  H   5.87842740586100     -1.81999691204613      1.31759895686309
  H   2.13243657051432     -0.16938228008228      2.66688549152701
  H   3.35406128006607      1.15122769357769      4.36244714348707
  H   4.60125297217423     -3.07210925807640      0.60776770554604
  C   -0.77730776781095     -3.13514463881676     -4.09155270912512
  C   -0.83708573381044     -2.37164461486524     -2.93468832519039
  N   0.14301597945264     -2.43534997919913     -2.02214319760546
  C   1.16885004381003     -3.26062392623493     -2.27551916271387
  C   1.20374463603126     -4.01482990108529     -3.43603289494223
  N   0.23528822927313     -3.95403875535483     -4.34269420602252
  H   -1.56928900171367     -3.07975696437020     -4.82656113705948
  H   -1.66539462853943     -1.70784102187055     -2.72682062042105
  H   1.96303944192948     -3.31528837874275     -1.54364647979566
  H   2.03248372896958     -4.68111241991588     -3.63578936101499
  C   -2.57438431082253     -2.18831557665244      2.66590675676930
  P   -1.39897691217787     -3.01699765693075      1.55537367546252
  C   -2.44732114756336     -4.05474666534793      0.49518829242191
  C   -0.49678125967158     -4.18500375964378      2.61281482075207
  H   -3.21984459036220     -2.91771448717720      3.15495598783986
  H   -3.19115301294315     -1.49743456735568      2.09167770753825
  H   -2.03656807423557     -1.62943759189745      3.43108479609103
  H   -3.07869454200518     -4.70311593009494      1.10259338838491
  H   -1.83166322216319     -4.67466450110481     -0.15590332121382
  H   -3.08028387103689     -3.41746967129856     -0.12174515225346
  H   -1.19286956330632     -4.83611179158509      3.14122134159517
  H   0.10215205266028     -3.64387406053958      3.34423830454575
  H   0.16788023791662     -4.80023817943382      2.00750970678669
  F   2.62445147844695      1.49406526641547     -0.07274400320200
  P   1.57934127626433      2.03919228885546     -1.11457986295812
  F   -1.86014295122112     -0.59975772900836     -0.69467042963871
  F   0.95615424504726      0.54295573843020     -1.44677990597780
