31
Coordinates from ORCA-job orca E -3560.330999235634
  La  -1.21602739408144      0.01987669760121     -0.54007148224622
  C   0.41780862893429      0.01232561423462     -3.81073166550279
  C   1.47040379733607      1.10179887689419     -3.89643467531839
  C   1.35592653292008      2.31098626058243     -3.09993994460876
  C   0.37728878978457      2.64391163669494     -2.19772192069630
  O   -0.60168431603658      1.89013730024138     -1.82520664931021
  C   0.41300604536503      3.99454511097591     -1.52565337361121
  O   2.42062692993757      0.94192110084207     -4.65634265809404
  H   -0.59440093414278      0.41278579013939     -3.80774953545854
  H   0.55889962816982     -0.56959833744569     -2.89378308238863
  H   0.55787586153796     -0.66550638779551     -4.64919089413776
  H   2.12858886520888      3.04192869549736     -3.29913172784265
  H   1.25744577932196      4.60000260833909     -1.84768985496864
  H   0.45120327689059      3.85126082144003     -0.44405960096982
  H   -0.51708002909103      4.52048229678300     -1.74513033313764
  C   -2.80537861320908     -2.92362254053737      1.82969898477191
  C   -3.75087144371120     -1.82944538244247      1.37841670871245
  O   -3.07345044592254     -0.57574841943013      1.22012416603561
  H   -3.33878435849286     -3.87305475995775      1.89818731366746
  H   -2.38773288785359     -2.69750743659079      2.81297199481133
  H   -1.98311895440658     -3.03173005427903      1.12205806638451
  H   -4.57679401544596     -1.69672481941420      2.08172835236042
  H   -4.16995791299104     -2.04725325492693      0.39808057314457
  H   -2.68611902275795     -0.27007678448200      2.05291329117981
  N   1.49268392284610      0.21827946324699     -0.39677800391905
  H   1.69565143026897      0.59419931814164      0.52240545503779
  H   1.95041053387340      0.79684020781706     -1.09496689216666
  H   1.85254861896233     -0.72686760057205     -0.44595899310729
  I   -3.67740860390521     -0.65931779598139     -2.46323382010819
  F   -0.37450189333740     -2.01711049570816     -0.40647041181393
  Br  -0.70605781592995      1.29148227004099      2.15566061334872
