56
Coordinates from ORCA-job orca E -1876.561520488207
  Sm  0.30080776748302      0.16826631146460     -0.27495873438157
  N   1.09224170448861     -0.25086203477143     -2.71591133870297
  C   0.90307500330728     -1.67386340983905     -3.11510734083513
  C   1.53204190735078     -2.56993993638324     -2.06684178154365
  N   1.02605186900039     -2.28359029925569     -0.69935783046391
  C   -0.03504208767484     -3.21618190214101     -0.23486167002028
  C   -1.41346401472599     -2.79910856281895     -0.70191094222808
  N   -1.72060021635791     -1.42419019534092     -0.21033383456884
  H   2.09480023106367     -0.06432634676096     -2.69072869001695
  H   0.75975504346338      0.34810311530397     -3.46688172304475
  H   -0.16697117896793     -1.85747747343934     -3.21020936305557
  H   1.35421764078456     -1.87992425060286     -4.08577634042852
  H   1.37487096184518     -3.61661319102784     -2.33270080455684
  H   2.61128283570883     -2.40563989650623     -2.06639000219876
  H   1.80998854634735     -2.41520750424324     -0.06867494490363
  H   0.17089608114038     -4.23469990784182     -0.56925924404835
  H   -0.01214354836985     -3.21797191608245      0.85485402374530
  H   -1.48227419389952     -2.79544631327625     -1.78861864874115
  H   -2.14695646957853     -3.51935833736145     -0.33937985319488
  H   -2.62903821669880     -1.14801394497763     -0.57080737987196
  H   -1.84767690484632     -1.48424730483289      0.79973953286223
  C   2.14667704120811     -0.59249632236127      3.43885668135691
  C   1.52402635976932     -0.44785908059652      2.07671116648737
  O   0.32353368850407     -0.81875691043774      1.87701102855809
  O   2.16127103872309      0.09029009302228      1.11480157854642
  N   1.16889033210359     -0.18279212897348      4.44790724606713
  H   3.02293230323966      0.04969843321441      3.48008436023396
  H   2.49684110579216     -1.62646964722328      3.53822026667585
  H   1.64825793998174      0.03185744516014      5.31374666056762
  H   0.53344826690897     -0.94369559047254      4.65502841850928
  N   -0.86772940189775      1.97147930433899      1.42654652901903
  C   -0.57253322385330      1.99669897944594      2.70861563057965
  C   -0.96673989506328      3.05632731618335      3.58918341766843
  C   -1.68546772986460      4.12518944339476      3.09268741203071
  C   -2.03003861718024      4.09062252943274      1.75732207033258
  C   -1.63422709510251      2.98698942431771      0.93637174424406
  C   -2.07838050594860      2.88184309897035     -0.43262590201272
  C   -3.01761711020531      3.77852822702127     -0.97518889076631
  C   -3.49672440796961      3.59043219082411     -2.26634019689973
  C   -3.02510876300727      2.51467698244794     -2.98362027742869
  C   -2.06763469376230      1.66909652841903     -2.38455928041839
  N   -1.59880463018920      1.83131706806489     -1.16480797624579
  H   -0.00605149484312      1.17205333141078      3.14154857063189
  H   -0.67467107573211      2.99492285302615      4.62953147247482
  H   -1.97877936879815      4.95364006895578      3.72262607687615
  H   -2.59979685375586      4.90586821290058      1.34037681920319
  H   -3.39740735672794      4.60728187898464     -0.39940512161770
  H   -4.22634536698881      4.26928175609470     -2.68594647868614
  H   -3.36755355447880      2.30860258428534     -3.98854629641913
  H   -1.68730001093153      0.82465347909145     -2.94899731776674
  C   2.92468478816266      2.61900782462157     -0.51935512931456
  O   1.55015071341318      2.23439159776233     -0.86369977995451
  H   2.91320690510312      3.58308947289487     -0.01886816020250
  H   3.52357619584737      2.67049556449602     -1.42454268513122
  H   3.30485524538665      1.85584925252977      0.14798958109872
  H   1.21019647129311      2.90257803948738     -1.46564632809942
