26
Coordinates from ORCA-job orca E -4118.652172360451
  Tm  -0.00225952094418      1.33475358724204      0.42161311058862
  Br  -0.18403534956446      1.67339133790417      2.89498524139358
  C   4.57683153408367     -0.74623204903937     -0.24008420783711
  C   3.93158298396690     -0.81716981839712      0.98577497681249
  C   2.67489023713001     -0.26396528884880      1.11054087930027
  N   2.04587248754951      0.33950578036286      0.07795275293911
  C   2.68493620366808      0.40120213632314     -1.11075373575589
  C   3.94116960254529     -0.12298149300512     -1.30804481596849
  H   5.56432867317689     -1.16917832964764     -0.36416666181832
  H   4.39391725084652     -1.29024617321298      1.83945549578532
  H   2.14832384695710     -0.28911142661450      2.05637641337670
  H   2.16400300940282      0.89094974649380     -1.92724378534410
  H   4.41207507333713     -0.04629085445590     -2.27683293984345
  N   -0.07466339149936      3.66080616086489     -0.15181457506176
  H   -0.05862890502978      3.96819717716094     -1.12340093991104
  H   0.70090944907480      4.15217256031341      0.29621194052541
  H   -0.90536628090650      4.09578679554908      0.25346259050846
  C   -1.12931914758303      0.07815446395012     -2.16536439710705
  C   -2.16101366447013     -0.47228411924926     -1.21276600265072
  O   -1.78216667511311      0.02432299310480      0.12104548533879
  H   -1.34695124165560     -0.22734828450961     -3.18753660691309
  H   -0.12859930499079     -0.31094119064243     -1.94104383596732
  H   -1.14139361141199      1.17780402824761     -2.18175801331556
  H   -2.15266979227358     -1.55851744338418     -1.18358166748770
  H   -3.16210340612013     -0.11183834796872     -1.43348725017588
  H   -2.38967006017620     -0.28694194854132      0.80576054858879
