5
Coordinates from ORCA-job orca E -485.913942928555
  U   -0.41504103775710     -0.66896614668564      0.01623930007104
  Li  2.63908210398146     -0.27692128041396      0.36807630676479
  H   1.46524428373728     -1.53090255548917      0.70201387613302
  H   -1.22089778247762     -1.70717834628566     -1.58761514569410
  H   -1.77389756748403     -0.46307167112556      1.57334566272525
