26
Coordinates from ORCA-job orca E -1463.457193858479
  Nd  0.55786673008915     -0.45658566590775      0.16168333828976
  N   1.51710316555181      1.91709444386658      0.19619448361196
  C   0.49229951533724      2.88453037008936      0.70276331341736
  C   -0.85177226234621      2.59339482549207      0.06806057746716
  N   -1.34281891208238      1.23292937146382      0.41981042845173
  C   -1.99053881825936      1.13543486261753      1.75890734487456
  C   -1.16683876273031      0.31972207040518      2.74113964812160
  N   -0.88718200058857     -1.03578228287341      2.18133562115387
  H   2.38281499427887      2.05804790944484      0.71316394801686
  H   1.75821860810837      2.18686612202973     -0.75779365660134
  H   0.78757168745629      3.91051798654142      0.48742652962035
  H   0.44332927988583      2.78707711252004      1.78779755010712
  H   -0.76730486538633      2.63937199736262     -1.01950588604639
  H   -1.57482098771698      3.35441779665501      0.36562939115149
  H   -2.03568623055618      0.99132347654654     -0.28251405496194
  H   -2.96957110872079      0.67012150276366      1.63764972262046
  H   -2.16682771932544      2.12841032624336      2.17327749459843
  H   -1.68882124575868      0.25486094922625      3.69527330778744
  H   -0.20539982514947      0.80295893562156      2.94619152806819
  H   -1.77136736730970     -1.50006780839013      1.97795361213220
  H   -0.46160811966517     -1.61420133413828      2.90353769830948
  N   0.06278684453186     -1.27930872581815     -2.45429261766524
  O   -0.12849109494637     -1.59778854034927     -3.55907706105812
  O   0.99304575439116     -1.78259014716876     -1.69820662567200
  O   -0.62908636984805     -0.37056221799223     -1.82575465219823
  I   3.61359911075946     -1.70729333625170      0.34864901640317
