7
Coordinates from ORCA-job orca E -894.220831371814
  Md  0.00004469243814     -0.00005008108224      0.00001500290053
  H   -0.00008341803634      0.00005761538766      2.55447750791131
  H   -0.00011234892440      0.00016940048974     -2.55466566859076
  H   0.00003930080875     -2.01465151749444      0.00008745415944
  H   0.00003979991422      2.01454784372622     -0.00001014575660
  H   -2.01460192225219     -0.00004187758341      0.00003561528611
  H   2.01468389605182     -0.00004138344354      0.00005023408995
