32
Coordinates from ORCA-job orca E -1010.461772757629
  La  1.37047869011025      0.80195484864275     -1.00642922487166
  C   -3.98855784176124      4.98828318567285      1.11729286222852
  C   -2.87898835723620      4.81725520320154      1.93423850064580
  C   -1.83449832148748      4.00678877408750      1.52006621245607
  C   -1.90252139798679      3.36802736971083      0.28667702604828
  C   -3.01342500026351      3.53981782253087     -0.53134474002100
  C   -4.05649933327543      4.35071745612632     -0.11449946658293
  C   -0.78080661116595      2.49347024720056     -0.15809326957039
  O   -0.85100612038017      1.91307751126540     -1.28443013831963
  O   0.22213638328700      2.33274969993383      0.60219815299812
  H   -4.80352253748388      5.62193514460928      1.44147658655943
  H   -2.82921355734422      5.31678660194354      2.89220990830612
  H   -0.95972399807023      3.85861439786519      2.13690205270808
  H   -3.04203785288154      3.03446639406343     -1.48623494785057
  H   -4.92194916449382      4.48764809862721     -0.74822928468117
  C   2.90168354316608     -2.41760448011722      2.11736332919253
  C   2.26267776676643     -1.94947649901567      0.83968381190190
  C   1.65612275452131     -2.88929357644331     -0.00671928755943
  C   1.10635242001629     -2.60490289072275     -1.26440605905180
  O   1.03122682068446     -1.44741152317581     -1.77721596516156
  C   0.56697865319065     -3.73133853458259     -2.10138578828702
  O   2.32426746438228     -0.70405911832405      0.61205235520231
  H   2.80135818187098     -3.48870043545761      2.26840740159989
  H   2.45007362406083     -1.88424421994947      2.95380317405842
  H   3.95790724845326     -2.14916166001055      2.09716134083886
  H   1.67058996637981     -3.92161652412113      0.30629811989268
  H   0.64128774345523     -4.69481735381620     -1.60513471984976
  H   1.11729685668266     -3.76164034650321     -3.04178990003536
  H   -0.47474030306846     -3.52245208040947     -2.34458004133774
  C   -0.80439856771573     -0.62388721066677      0.78504324067239
  O   -1.45801978907393     -1.03107764918492      1.60079561002037
  F   2.94857063666106      1.78919134701958     -2.10917685214978
