5
Coordinates from ORCA-job orca E -4409.685289407062
  Yb  0.03111562257200     -0.91630166275618      0.13744859140222
  Si  2.15966649511547      0.96682766777476     -0.00724811794750
  Se  0.90972442442763     -3.42717283620212      0.76357323635311
  F   -0.79977320430435     -1.14120274835551     -1.63996951612606
  Cl  -1.60624333781076     -0.12919042046095      1.81825580631822
