5
Coordinates from ORCA-job orca E -33.680337159283
  La  0.13982868620904     -0.92634984181525      0.21300282868944
  H   1.96806045748919      0.23893535444383      0.19772694594988
  H   1.17167245962006     -2.74607930402827      0.76989618803997
  H   -1.08710624606934     -0.95317774348174     -1.57297621805219
  H   -1.49796535724896     -0.26036846511857      1.46441025537290
