23
Coordinates from ORCA-job orca E -2988.237744395467
  Dy  -0.22430591829927      0.76020249353040      0.16797420004677
  C   4.60166907377653     -0.03506902371399     -0.12198921372429
  C   3.36792099446384      0.39544927148379     -0.46992126519458
  N   2.19909272367226     -0.32813768926534     -0.00167670694463
  C   2.52600321762051     -0.91611108234186      1.28725649050943
  C   3.80355119284851     -1.29356169533090      1.54493469750845
  N   4.90491503784488     -0.98001781638261      0.81698180346495
  H   5.45319950748757      0.48274810985397     -0.56887409829205
  H   3.17350159058295      1.24158046739418     -1.11047190108740
  H   1.70486958083262     -1.08695898171424      1.97031769613028
  H   3.98308291369007     -1.83952214689250      2.47394221541063
  S   -3.21546819625798     -0.05078186665762      0.27305943377002
  C   -3.67964185476570     -1.17437086089911      1.42172360274509
  N   -4.07251091448550     -1.94510118217308      2.20300578033110
  O   0.08347008323572      3.77093111996337     -2.44235249947887
  S   -0.40323266378040      3.40806646655558     -1.09555751994780
  O   0.76594839450213      2.71049021207954     -0.31096448457785
  O   -1.33638891929276      2.15402516927389     -1.22149776682112
  O   0.11644357000448     -1.36917627656530     -0.73495530993028
  S   1.55533782407157     -1.48167155790916     -1.14300405186096
  O   1.79152624889203     -0.90719085749853     -2.44849729778650
  O   2.07258634735786     -2.81250675736446     -0.92609332310869
  F   -0.41396983400215      1.02518448457398      2.19515951883830
