5
Coordinates from ORCA-job orca E -2926.104005555468
  Tm  0.03926456524112     -1.13322416898857      0.53045454244673
  Cl  1.69144266043766      0.47859435224463     -0.59023096304824
  Cl  0.89846156872124     -3.36107907201408      0.85897481987595
  Cl  -0.43895721562344     -0.39308500226731     -1.88380509948866
  Cl  -1.49572157877659     -0.23824610897466      2.15666670021422
