24
Coordinates from ORCA-job orca E -1189.582160201784
  Ce  -0.59228853975511     -0.29041950052344     -0.03951648508507
  N   0.10718954982260      1.71316962711306     -1.29481740905482
  C   0.94662544842690      2.40437492170890     -0.27353061230909
  C   2.19667387329385      1.58604888726536     -0.01264892741500
  N   1.85983867537490      0.14416213939263      0.23950847341460
  C   2.36029921762750     -0.38103316523651      1.54885141849600
  C   1.35119732400081     -0.10656757461571      2.64069167448583
  N   0.07790651492613     -0.81239517993958      2.29881149852667
  H   0.62774269419763      1.60112935150721     -2.16396341606190
  H   -0.69417630577011      2.29929262181823     -1.52892584997526
  H   0.34364372718030      2.50691216684015      0.63423731551471
  H   1.20856807408936      3.41264724226195     -0.59223445452456
  H   2.72699399978506      1.99611695175218      0.84512309823340
  H   2.87380655872965      1.64084959017204     -0.86484398739511
  H   2.31846365898462     -0.40434136209083     -0.48404331170143
  H   3.32690281472018      0.06093647479659      1.78928089621887
  H   2.51305008813515     -1.45610374813187      1.44013862764279
  H   1.13086313481930      0.95921761835233      2.72444365939144
  H   1.72959631853944     -0.43615099916947      3.60715622796422
  H   -0.65361832077436     -0.51503724265567      2.94724635176122
  H   0.19703971608138     -1.81175220003850      2.46920735688767
  C   -2.22358245896674      1.30711219931349      1.94696788383474
  N   -2.06222975556145      1.09302453681977      0.78944642970513
  I   -0.20020600790708     -2.53839335671236     -1.62418645855515
