4
Coordinates from ORCA-job orca E -449.742114167843
  Pa  0.11887870745837      0.16066466995416      0.40454741333929
  Li  -1.07721181786656     -1.53969042830389     -2.16858874139837
  H   -0.60206109022169      2.06555723904789      0.16038317878539
  H   2.15688420062988      0.13535851930184      0.16705814927368
