40
Coordinates from ORCA-job orca E -1819.536422338531
  Dy  -0.04986859638030      0.04601280289193     -0.14752159421379
  N   0.37909044369729     -0.66275272586958      2.18274996927488
  C   -0.74909650143943      0.03406889311377      2.85231183951224
  C   -0.52065519902112      1.53450863083594      2.80876992356651
  N   -0.33896315290988      2.04487001959416      1.41353830698437
  C   -1.45407304360817      2.92243297327141      0.95783114962956
  C   -2.62808093531029      2.09595468741122      0.47840593196189
  N   -2.18419384825461      1.25637514603450     -0.66534127257236
  H   0.23632158624422     -1.66877145920757      2.24206014523444
  H   1.23994400743225     -0.47219507780258      2.68860110475942
  H   -0.87058657166177     -0.29012501486254      3.88575491259495
  H   -1.66880810082306     -0.24534524141986      2.32824491736524
  H   0.37070060010493      1.78232265438071      3.38664730545634
  H   -1.35608003962796      2.04510503541955      3.28809263396621
  H   0.49180888631294      2.62804520011007      1.42078129937313
  H   -1.07964523202382      3.53773463833051      0.13701348877841
  H   -1.76200730998790      3.60108780962431      1.75456963523304
  H   -3.45677994005780      2.74772174444555      0.20365281772294
  H   -2.99074646402289      1.43621971709674      1.26732057184374
  H   -2.16259923633621      1.83237586434864     -1.50282852677516
  H   -2.87705847457139      0.53511217370242     -0.85469031067734
  C   0.38176933619434      1.09166791016128     -4.30280594579081
  P   -0.05116892708145     -0.22290260032375     -3.12187868238698
  C   -1.73772032461656     -0.70811681578457     -3.61019214542167
  C   0.95062319929418     -1.64519556228423     -3.65936704661351
  H   0.24073661276990      0.73600031877700     -5.32354750987602
  H   1.42115356710796      1.39281768413227     -4.17963042260630
  H   -0.24981090910299      1.96650642004446     -4.15182287723671
  H   -1.74928260666336     -1.00215644113255     -4.65997983179392
  H   -2.43289738943648      0.12261920540390     -3.48717572794372
  H   -2.07692054076747     -1.54849850166705     -3.00602255649707
  H   0.73600772963959     -1.87463294429384     -4.70340742957998
  H   0.71325803540625     -2.52231491388518     -3.05690789500307
  H   2.01524823011614     -1.42588395970735     -3.57690804948085
  C   -0.65009259346266     -2.67543360169244     -0.47042929485629
  N   -1.33580997051349     -1.77347567698222     -0.15211686518857
  N   2.24809171645830     -0.85991496858618     -0.52367396650826
  H   2.89517482587036     -0.88416784994302      0.26096190692681
  H   2.78320345993237     -0.48225220490410     -1.30177462439989
  H   2.07531367110012     -1.83872396878175     -0.76198528476177
