4
Coordinates from ORCA-job orca E -3114.918124398615
  Pa  -0.21265823152637     -0.06992955316678      0.16817300060333
  H   -0.76486201348180     -0.83991440475260     -1.59192331735563
  F   -0.84356946100691      1.83158361576017     -0.10070435120697
  Br  2.41757970601508     -0.09984965784079      0.08785466795927
