5
Coordinates from ORCA-job orca E -1173.078059414789
  Nd  0.03750421543607     -0.84443072806052     -0.13020087027863
  B   2.22530568135977      1.00526263906869     -0.17462987770573
  Sn  1.27613089709769     -4.05724651085334      0.93843672447596
  O   -0.77876329745630     -0.90272181204634     -1.76951729898634
  I   -2.06568749643724      0.15209641189153      2.20797132249473
