5
Coordinates from ORCA-job orca E -2524.301707756754
  Bk  0.13965687507628     -0.92814069614953      0.21434366345109
  Cl  1.97891973895738      0.64516132668744      0.10533771156420
  Cl  0.98146527921234     -3.11528543483473      0.82742173873167
  Cl  -0.94292173816748     -1.06045538134412     -1.94888873650456
  Cl  -1.46263015507853     -0.18831981435906      1.87384562275761
