27
Coordinates from ORCA-job orca E -2134.835502431231
  Er  -0.25700740262918      1.08118299708081      0.80978627858798
  C   1.82129454159036      0.04911654892063     -1.73363925324327
  O   1.36679054419291     -0.00565638588423     -0.33673597032278
  H   1.71612467739340     -0.93484309477324     -2.17873735803420
  H   2.85203829571357      0.38741970541137     -1.75804987761415
  H   1.18254678450142      0.76055942879245     -2.24877202618566
  H   1.91640775819548     -0.63950065964304      0.14181360447056
  C   0.06626614372312     -0.36326094340163      3.80525020595401
  O   -0.06366205263830      0.24639897020627      2.51974338556947
  H   -0.73784596945572     -0.01944231504144      4.45147465847141
  H   1.02305994097139     -0.08738972822144      4.24154048023394
  H   0.01355338174937     -1.44448064720410      3.70050616544892
  C   -4.78152120301318     -0.55908815028177     -0.88441353176691
  C   -4.04275701329767      0.33683898025866     -1.64726961585152
  C   -2.82290683943172      0.75830718245367     -1.16913874714766
  N   -2.31499518279923      0.33809326740140      0.00781467359732
  C   -3.04113874038671     -0.53127693350242      0.74121471163451
  C   -4.27091003352663     -0.99832614076198      0.32841959157984
  H   -5.74383015099344     -0.90860417701049     -1.23223617145866
  H   -4.40675530562981      0.70314967961044     -2.59565121389841
  H   -2.22698304128064      1.46015262158264     -1.74361788839001
  H   -2.61167473914367     -0.85032533943568      1.68237516617378
  H   -4.81606016138986     -1.69301785894166      0.94988321382747
  F   -1.15841063029016      3.31772208242797      1.42917107775309
  P   0.11578530165403      4.34651566882836      1.60527688737323
  F   1.05138982593673      3.17617245755112      0.90275055365753
  F   0.44340127028431      3.97088278357729      3.06134099958012
