5
Coordinates from ORCA-job orca E -1685.990214255028
  U   -0.02140379568578      0.52920482534124      0.06697479825225
  H   1.64359519273962     -0.58132152421406      0.38810508956790
  K   0.57806366845891     -2.96421249657518      0.70031066500282
  Te  -0.54182092083283     -1.15770563334475     -2.07617718514659
  P   -0.96394414467992     -0.47300517120726      1.99284663232362
