4
Coordinates from ORCA-job orca E -8405.156266229271
  Bk  -0.02429236857639     -0.05062010527187      0.07379555984247
  Br  -0.99066296689754     -1.40452631130628     -1.94653719573308
  Br  -0.97609959335302      2.38212337740173      0.20866759904109
  Br  2.58754492882694     -0.10508696082358      0.22747403684952
