38
Coordinates from ORCA-job orca E -3153.691384425449
  Ho  -0.44473414265445     -0.68682859672674      0.70549494718314
  C   2.65495371739006      1.12347489019483     -0.66258244336151
  P   2.24851512073645     -0.62234039240713     -0.34696259983771
  C   3.44168256704903     -1.10711631393607      0.93528469061552
  C   2.79977864623560     -1.48766325489482     -1.84618916649903
  H   3.71051923893236      1.21984757383385     -0.91743579998001
  H   2.45441623251127      1.72174736733399      0.22608800689281
  H   2.06308090667593      1.50724645329063     -1.49284089315479
  H   4.45541560189555     -0.88125808986855      0.60424612261072
  H   3.37271381023708     -2.17412457064621      1.14101869482841
  H   3.24126092285896     -0.55799873149837      1.85512635273308
  H   3.84545868791442     -1.25487630936363     -2.04710345654953
  H   2.20159033765459     -1.17984672640044     -2.70274068901393
  H   2.69967259400793     -2.56473125149162     -1.72344683235347
  S   1.96562376013762      2.36639175337465      3.55502148408662
  C   1.03579919508328      1.38228156880982      2.78136903959718
  N   0.33196951521827      0.61958035537624      2.16765394005912
  O   -1.95534649820427     -1.42980374619158      2.38266634486955
  H   -1.82179183565954     -1.03049485583170      3.25316676151757
  H   -2.78787630686976     -1.91432608655036      2.42260625561075
  F   1.36081269325133     -4.17739293424018     -0.02215416891269
  P   0.17438694448262     -4.15353468253277      0.97802984334279
  F   -0.75900770512490     -3.10690841031379      0.10209658625350
  F   0.69670714359057     -2.92945203464877      1.87583760403443
  C   -2.93872830592649      1.23263192351913     -2.87083614989951
  P   -2.26310948547092      1.72527480891129     -1.29820014581102
  O   -1.56944592129649      0.51217364336185     -0.62431343380154
  C   -1.08083560641406      3.03631302608848     -1.54972542733337
  C   -3.57676019347814      2.33014550099859     -0.25601894933083
  H   -3.42182108693115      2.08517597471001     -3.34879853577884
  H   -3.67611516788895      0.44391779338174     -2.72689342782026
  H   -2.14302258101823      0.86817419454625     -3.51930376923532
  H   -1.57516112244715      3.90323663994106     -1.98872133899783
  H   -0.29501391675117      2.70335638523294     -2.22668938322517
  H   -0.64326150838757      3.32672249591182     -0.59455093466699
  H   -4.06563337368731      3.17974101426319     -0.73327123027874
  H   -3.17024812724589      2.65220332231444      0.70239705330561
  H   -4.31584475040645      1.54626030214787     -0.09482495169859
