63
Coordinates from ORCA-job orca E -3175.572190024308
  Yb  -1.57825341126235     -0.57389055796538      0.17734955266387
  C   1.96088928273460      2.89833443453374      2.22204682727047
  C   0.60447226901050      3.00988230951055      2.48367733164474
  C   -0.25264341914738      2.05857919912381      1.95772466735153
  N   0.16756906346474      1.03220558235887      1.21323398892831
  C   1.47604428484277      0.93075781773721      0.96500163420662
  C   2.40444534336109      1.83956659865416      1.44719809017154
  H   2.65914516863081      3.62619080827163      2.61334614376808
  H   0.20949430779282      3.82063691894368      3.07875242594004
  H   -1.32117395375149      2.12459515348262      2.11754714843733
  H   1.77350255252844      0.09009560062096      0.35153515024291
  H   3.45170400043392      1.71264552439399      1.21326179003878
  C   3.37463068544784     -5.48704183379547      1.43384764633583
  C   2.28104839984185     -5.36781742679057      2.28134022586337
  C   1.33514669008044     -4.37876226847668      2.05832944620243
  C   1.47787516991356     -3.50791060469778      0.98456755515269
  C   2.57326125971621     -3.63040978369213      0.13658565665930
  C   3.52129253274481     -4.61710571257988      0.36147223529322
  C   0.44793307649817     -2.44089246324581      0.73084439510090
  O   0.56532900820206     -1.73715244476830     -0.31187650997522
  O   -0.49640109711548     -2.29775790646381      1.55011902833547
  H   4.11318139993112     -6.25811158248005      1.60940768422264
  H   2.16723322935120     -6.04691436336734      3.11582692187862
  H   0.47498501051781     -4.26625909214670      2.70333381395429
  H   2.66582295016695     -2.94093329402877     -0.69186001121383
  H   4.37527078784786     -4.70863632510786     -0.29659354756287
  C   -2.67608761106370      0.90388085692882     -3.88559709413537
  O   -1.38996410286072      1.42876827305903     -3.52647083323516
  P   -0.48154472493367      0.57778905942993     -2.48368015783469
  O   0.68452857263087      1.67775431175809     -2.26699985418073
  C   0.31694667123516      2.93917702354899     -1.68882218577269
  O   0.32635620301346     -0.45760889314885     -3.42469901245675
  C   1.07091287920368      0.00772829584207     -4.55790808051998
  H   -2.61708176099202      0.45589556964351     -4.87716082693481
  H   -3.38346836652750      1.72842585233007     -3.89167146301607
  H   -3.01801756182887      0.15628720458661     -3.16776909436227
  H   1.18225547230394      3.30475539013471     -1.14052752321614
  H   -0.53095016023226      2.83618456419003     -1.01064303950271
  H   0.05448194653457      3.63777243180674     -2.48119540114515
  H   1.27898252611372     -0.85991196716137     -5.17873696905065
  H   2.00362436442180      0.46157436094485     -4.23057402447087
  H   0.49328768509512      0.73552670784662     -5.12623809360463
  C   -0.29722342704993     -3.64489638349823     -2.58935580741008
  C   -1.42554519499634     -3.06972083299411     -1.87622139815715
  N   -2.30086355398857     -2.59965071189568     -1.30002198830521
  H   -0.64864152762984     -4.19720781361591     -3.45823249297381
  H   0.24903987051349     -4.30839017983015     -1.92184807200121
  H   0.35332879006227     -2.82721738403935     -2.89397262741372
  N   -3.47789618123954      1.46989465462781     -0.68214505950429
  O   -3.71216250217343      0.23118342814117     -0.80488372087446
  O   -2.42629535075141      1.78235541924502     -0.04602336151153
  O   -4.21453901790416      2.31011195209291     -1.14984475146295
  C   -3.98820278160816      0.22651079309598      4.85373790977137
  C   -2.76211064173665     -0.41281799527118      4.76867550209032
  C   -2.23369737027666     -0.67577321359647      3.51555949836597
  N   -2.85514371376681     -0.33224768754460      2.38344606433906
  C   -4.03999203095979      0.27693545549273      2.47293673834225
  C   -4.64270882849488      0.57456907362347      3.68318431230014
  H   -4.42902360218939      0.44661643288441      5.81685206328718
  H   -2.21896204773598     -0.70870308603565      5.65461452789765
  H   -1.28680043775832     -1.18652895358346      3.39335192162336
  H   -4.52088822758553      0.52443984068185      1.53523998452909
  H   -5.60323884662644      1.06864386225528      3.69922511959560
