29
Coordinates from ORCA-job orca E -1953.166643717703
  Pr  0.04875161069201      0.16260702855865      0.41648533703512
  C   2.33805936117338     -2.29907486957288      0.03083454242326
  C   2.82047665632311     -1.26698477950237      1.04202289396278
  O   3.83325936333180     -1.36091879301568      1.65664459585242
  O   1.94646054682962     -0.24904605444561      1.16575283320406
  N   1.29715171213425     -1.71919977806784     -0.84455600594204
  H   1.90602331576229     -3.12295479554227      0.59832444426149
  H   3.19328267928545     -2.68546705696103     -0.51925478456486
  H   0.70144708862607     -2.45056436703261     -1.21539206086463
  H   1.73480743548705     -1.27999444497329     -1.64957208294534
  C   -4.58431749576475      2.80022351447430      0.75887536060630
  C   -4.45836771925622      1.50620721414499      1.23746270086366
  C   -3.23311531966162      0.87685910770671      1.13959148807189
  N   -2.15590076803663      1.46619269194178      0.59848097561799
  C   -2.28808410139316      2.71839223256719      0.13935782508773
  C   -3.47669687170552      3.41766747740023      0.19939378319610
  H   -5.52918281560722      3.32119209438785      0.82494988097557
  H   -5.29145975871296      0.98751575702178      1.68805840654341
  H   -3.09714684024132     -0.12854061433984      1.51203437481092
  H   -1.40646738607357      3.18134247511326     -0.28322539652415
  H   -3.52562745413144      4.42708798048415     -0.18054158195252
  N   1.30078182659353      2.57081008786299     -0.27007756334221
  O   1.95316280934671      3.42827507045097     -0.74037111213759
  O   0.97217641320739      1.50262679084483     -1.02143801154653
  O   0.83242198706670      2.51651862817503      0.88060083381826
  O   -0.79673500259422     -0.95477682117300      1.39371202287140
  S   -2.33231064554661     -0.21789971365545     -2.70114065951969
  O   -3.33532170400323      0.70365559687646     -2.30332020428351
  O   -1.23392892313063     -0.44425165972945     -1.78379283557923
