41
Coordinates from ORCA-job orca E -2962.742222144639
  Lu  -0.49934662926463     -0.17472916160388      0.14930583407778
  C   0.64867050485029     -0.03292087466620      3.21143750914782
  C   1.68730806079102      0.28077194119941      2.12950238837383
  O   2.61536792145064      1.02630552172864      2.34735903245644
  O   1.42070233108643     -0.30724160197467      0.99712279269284
  N   -0.71420290099529      0.02345513688496      2.61092363809222
  H   0.75921976114746      0.65170178854187      4.04817892873874
  H   0.83286888971631     -1.04647112670990      3.56505209646092
  H   -1.11688136283166      0.93996264603888      2.77948693081558
  H   -1.33134792718725     -0.63114142787952      3.07700559973472
  S   -1.59905486722932     -1.62168147616599     -3.98328590670790
  C   -1.19264772494066     -0.55831845099034     -2.85900650377066
  N   -0.89573896146794      0.19928002436178     -1.99727678070218
  C   -4.44897825260580     -0.43108258274834      2.36543400173307
  O   -4.75373758443921     -0.42525837481592      0.96304571931765
  P   -3.69739219853306     -0.31186113592568     -0.22089959344832
  O   -2.66576752674793      0.89012752964819      0.31754956141018
  C   -2.95616859882302      2.21836182511336     -0.20223476798891
  O   -2.51603612816459     -1.41799279991292      0.25463422045912
  C   -2.80280837094779     -2.79831340888892     -0.10184133348894
  H   -5.39312652610819     -0.53219904983088      2.88915265069563
  H   -3.97078858677965      0.50449582727708      2.65036409280983
  H   -3.80561040712242     -1.27618293736454      2.60745289779337
  H   -2.46441212758432      2.92803199115679      0.45296742024789
  H   -4.03058169225379      2.39103028401670     -0.18842392206556
  H   -2.56606047107630      2.30059520629441     -1.21375244944435
  H   -2.07050099184486     -3.41645414668264      0.40526650678087
  H   -2.72261590274834     -2.92027539220529     -1.18025234930144
  H   -3.80271491651369     -3.05841820476656      0.24024257521648
  C   2.17383422774272      3.71402938034710      0.63913540715896
  C   1.01855995686845      2.85398819208644      0.48203077115919
  N   0.12811602629713      2.13937376509783      0.36897717558778
  H   2.95192999400480      3.12113654191292      1.12043037638667
  H   1.91617847798542      4.56713679234323      1.26316332841048
  H   2.50614132022281      4.05956014402102     -0.33741062279748
  C   1.14508771676827     -3.92793196786698     -2.48321777485389
  C   0.60603555411165     -3.02024846652423     -1.48869944490284
  N   0.18007264428160     -2.29471577981873     -0.71151927863764
  H   0.70365595341894     -3.67888825757427     -3.44667043861574
  H   0.89905501151534     -4.95331236987620     -2.21507868892828
  H   2.22601630395108     -3.81220554327795     -2.52785160010409
