24
Coordinates from ORCA-job orca E -4702.169684565488
  Tm  -0.26471588049784      1.61656022755740      0.68700470248732
  Br  0.43714981125617      2.41930635024974      3.21144739717590
  C   3.62401274085218     -0.94471088690073      1.33117351920255
  C   2.46970285198251     -0.20110102261788      1.51042980890785
  N   1.89498508848617      0.42359782146696      0.48504300139465
  C   2.46704469222325      0.31147772670393     -0.71102649757227
  C   3.62455710584962     -0.43880157404350     -0.86810524819630
  N   4.20977934878795     -1.07043586759705      0.14336839230701
  H   4.08649008658908     -1.45120021233300      2.16897137462682
  H   1.99734770728099     -0.08874625057176      2.47789964571278
  H   1.97051066406592      0.82022668647424     -1.52754659004884
  H   4.08721091329645     -0.52982907879645     -1.84271654062628
  C   -0.70976827615541     -1.99651550880954     -0.54073512256441
  C   -1.64282149685226     -1.38928011321701      0.50088489404851
  O   -1.14528715922316     -0.19534704735342      0.99429323037020
  H   -1.11605605361463     -2.92747894053313     -0.94587666977286
  H   0.26326834355050     -2.21294509368243     -0.09264609718029
  H   -0.56358096891017     -1.28596131380530     -1.35562245764923
  H   -1.79158153680366     -2.10982014996779      1.32007815306998
  H   -2.62994642062147     -1.23472725511626      0.04139426459547
  O   -0.28593518818222      1.29040474994041     -1.76178166524367
  S   -0.36096309345784      2.82058851409431     -1.65135310102097
  O   -1.50132320952104      2.98736028133000     -0.59800870266741
  O   0.87221992961881      3.10207795752831     -0.76766969135652
