19
Coordinates from ORCA-job orca E -1062.214906232310
  Ce  0.02757859649200     -0.44944755335294     -0.49480556422913
  N   -0.94831627094897      1.78403056980474     -1.78034885409794
  O   -1.36330937882794      2.72320247237866     -2.31361642572362
  O   -1.09570405661730      0.55481978551238     -2.20217000148706
  O   -0.26028761804079      1.79626471258132     -0.66702608532943
  C   2.99945147481712     -0.21771599068924      1.34760848526558
  O   2.04299791721488      0.38982793717280      0.39541399395654
  H   2.99174656627326      0.36296439447573      2.26398098491841
  H   3.98201933995695     -0.23340497842918      0.88812738710163
  H   2.65497801940120     -1.23009508895739      1.53924903235466
  H   2.30642366673600      1.30771479682980      0.23421769056258
  O   0.21701938491398     -1.95070791546465     -2.40521801365735
  H   0.43788696982229     -2.89051684040241     -2.48346226842822
  H   -0.05102473903626     -1.66661123594634     -3.29319197867157
  C   -1.86992996011682     -1.85669399164959      1.91353101405701
  O   -0.97399232808335     -1.30912304505363      0.88959223020778
  H   -2.06792090094285     -1.06678459422658      2.63077601076170
  H   -1.35590673107450     -2.69297136834759      2.37632853663103
  H   -2.77910995193893     -2.17805206623586      1.41541382580736
