6
Coordinates from ORCA-job orca E -4513.279873221378
  Bk  -0.07059266243681     -0.26351549535033     -0.37029626916587
  S   0.01912666908745      0.44943230860637      2.28497878569187
  F   0.25976584397390      0.26085772042807     -2.33554220432169
  Cl  -1.37451574775590     -2.44984682044734     -0.49637231675446
  Br  2.52625158542261     -0.43845592647574      0.55552950889704
  I   -1.36002568829125      2.44152821323896      0.36171249565311
