7
Coordinates from ORCA-job orca E -4063.773336382166
  Am  -0.10768478868409      0.82106705370087     -1.14026507929252
  Ga  -0.05862146530512      0.55660464190691      2.59135590524957
  C   -0.04535905082697     -0.77958868417049     -2.13695229016170
  Si  -0.01361390470481     -2.12144831949273     -0.86620474659481
  Cl  -0.18485722350768      2.66362787408910      0.51986304062660
  Cl  -1.59993810862404     -0.60037235145053      0.51617970867247
  I   2.01008454165271     -0.53990021458312      0.51601346150039
