5
Coordinates from ORCA-job orca E -1177.881798819210
  No  -1.89004619369131     -2.67272475903911      0.45390823111767
  Na  2.05905149547417      0.72098408993726     -0.00957816648031
  Be  1.30452713373039     -2.07804214396602      0.29400084657735
  C   0.05596005813623     -1.00096967941512      0.22389863611421
  Be  -0.83500249364950      0.38371249248302      0.10983045267107
