5
Coordinates from ORCA-job orca E -11454.764343113162
  Yb  0.12795597750083     -0.97228902854123      0.22807161920979
  Br  2.74393388829127     -0.04667011843021      0.31643932245509
  Br  2.05514127401405     -2.83607949267241      0.95442193645064
  Br  -1.92168026416954     -0.72706510985002     -1.63253323436950
  Br  -2.31086087563661     -0.06493625050613      1.20566035625397
