6
Coordinates from ORCA-job orca E -2161.880070868324
  Lr  0.13069048969439     -0.27350751080705      0.65302578822349
  H   -0.39452941465738      0.86378923120645      2.19621963088913
  K   -1.11754067806122      1.86113112910807     -3.13199108605225
  Sn  -1.58520539727004     -2.84714178164274      0.46039971475868
  Sb  3.21090249507659     -0.52337454549805      0.80879259548558
  F   -0.24430749478233      0.91910347763331     -0.98643664330465
