22
Coordinates from ORCA-job orca E -564.007621409724
  La  -0.46259761721413     -0.75580339771267      1.04009149716286
  C   3.59993487558658     -0.30092791989048     -1.39764009407311
  C   2.16249712210896     -0.15482638308899     -1.27375816721541
  N   1.02640863852681     -0.05272431398634     -1.14025910201249
  H   3.96336793362130     -0.66637630104396     -0.43366439540338
  H   4.04919150295890      0.66163081593506     -1.63097436150989
  H   3.83014322745948     -1.01655065267062     -2.18356033453662
  O   -1.51476657128214      0.50173845825675      2.59271224062973
  H   -1.94373811798729      0.62449302455703      3.43596447896377
  C   -1.47757441591189      2.55759744787655     -0.69677786963228
  O   -1.53062979806135      1.42057748802933      0.15486203063844
  H   -0.85165812701748      3.34025925016077     -0.26770676875006
  H   -2.47790466204278      2.94946535718090     -0.87951883315428
  H   -1.04400375391885      2.23433982303698     -1.63895366641755
  H   -1.81168661407838      1.62619096856267      1.06732258586759
  C   2.06962169668658     -1.21982850827168      1.71831484331443
  N   3.22607933830371     -1.26105363978092      1.64384885233466
  C   -2.28307285930432     -3.70538403803675      0.21328772385524
  O   -1.51907049927813     -2.57323532993287      0.49726725036555
  H   -3.26374912489433     -3.43208497953678     -0.18992358568178
  H   -2.45045325556518     -4.30804301474427      1.11150112537403
  H   -1.78587301011117     -4.34241786577983     -0.52511853891804
