5
Coordinates from ORCA-job orca E -3281.964889168480
  Nd  -0.64107822068300     -1.32960114583129     -0.64265241494150
  In  1.60814643459636     -0.17048199653099      1.81155103072846
  Sb  2.24795077305677     -2.60253338519436      0.48178031149386
  N   -1.89447404587874     -1.42016686909800     -2.04399910727889
  As  -0.62605494109139      0.87574339665467      1.46538017999807
