6
Coordinates from ORCA-job orca E -869.898954300604
  Pa  0.42955874331589      0.15179258865946      0.52678589047551
  H   0.58428088835046      0.44492656783452      2.52791859535502
  B   -0.68856975426437      0.17439135147269     -1.51880083662185
  Si  -0.97580466428165     -1.70377680582917     -1.01721393124709
  F   2.26510122995755     -0.63813610190651      0.40316511048588
  Be  -1.61455644307789      1.57080239976901     -0.92184482844747
