37
Coordinates from ORCA-job orca E -2569.421527637228
  Tb  0.41311031487147      0.16068988411494     -0.40073420443863
  N   -1.55661420689011      0.57243418802225      1.68328713687516
  O   -2.42475136531714      0.74978612672515      2.51479352075981
  O   -1.36715014582628     -0.55951697702396      1.15040396229602
  O   -0.79811639901107      1.50740852549688      1.30205814031082
  C   -0.51811460500603     -4.16414316622633     -5.89511569131383
  C   0.14981080892390     -2.95968380498317     -6.07674265956750
  C   0.39012650589965     -2.12851772677574     -4.99206687606060
  C   -0.03841705135431     -2.49688971242934     -3.72340969027817
  C   -0.70620172100259     -3.70129052598541     -3.54282315058530
  C   -0.94464235197164     -4.53469201931652     -4.62607143417489
  C   0.20960540727565     -1.58558769132485     -2.54565895850132
  O   0.84089228484423     -0.51770628959663     -2.73630506835959
  O   -0.24392083835953     -1.93178859358974     -1.42276779221294
  H   -0.70548600335371     -4.81389040619851     -6.74177498095508
  H   0.48319882561054     -2.66942574588614     -7.06561805984729
  H   0.90827843888615     -1.18537482445614     -5.09967970337020
  H   -1.02719757408799     -3.95943007069929     -2.54296308832360
  H   -1.46386843401270     -5.47430298175429     -4.48207229614691
  O   2.21769315635598     -0.07520606240988      0.47019098638671
  S   3.84273593316035     -0.27831655921972      0.87355495884832
  O   3.83452411456200     -0.06252115802245      2.33836466423422
  O   4.07458199679403     -1.70055796589600      0.52817999138498
  C   -2.75890360197442      5.60161108002160     -3.71914508830533
  C   -3.49723924664410      4.44659998071856     -3.49318175662411
  C   -2.90185983650898      3.35039109183548     -2.88618632345782
  C   -1.56813854840217      3.40264036897455     -2.50086951343927
  C   -0.83168987141485      4.55842415026791     -2.72635512918196
  C   -1.42496329354019      5.65557944759893     -3.33525300217245
  C   -0.93246434260308      2.20503413723830     -1.82805878335904
  O   0.27317169780507      2.31152614839379     -1.46359211423109
  O   -1.62907985880306      1.18296701722904     -1.65903483136455
  H   -3.22342300135261      6.45911633807758     -4.19145643579904
  H   -4.53869551987736      4.40318056798141     -3.78830083171005
  H   -3.44874149447473      2.43756532935917     -2.69261119261309
  H   0.20273167208456      4.57168553510624     -2.41117567728635
  H   -0.84808184528476      6.55590236463220     -3.50850902741524
