5
Coordinates from ORCA-job orca E -621.365326378814
  Ac  0.44261465921119     -0.50232807184754     -0.06672694827045
  H   2.05046786678928      1.12574243081478     -0.63646077181477
  In  -0.03441619619149     -3.48025319496931      1.75254690966488
  H   -1.20898230197174     -0.44655987199236     -1.65666580617473
  N   -0.55519402783724     -1.34364129200555      1.67936661659507
