43
Coordinates from ORCA-job orca E -1966.741683043998
  Gd  0.59318837824294      0.20533632156256     -0.63499163330235
  N   1.27942382951459     -2.19166773188105     -0.63732928255725
  C   1.20064530539170     -2.69382081940303     -2.04174323518536
  C   -0.17979728780313     -2.41504636208337     -2.59803845778724
  N   -0.43387921338872     -0.94813628480235     -2.59468926432091
  H   2.24232878864381     -2.27173492741254     -0.31747031283437
  H   0.75017957166101     -2.82054593562299     -0.03753621192808
  H   1.41797047186613     -3.75980089402286     -2.09004159851507
  H   1.95956083083749     -2.16890619002661     -2.62215089475921
  H   -0.94217478257882     -2.88949146741441     -1.97835468736243
  H   -0.26922571842500     -2.83117425654109     -3.60038126158512
  H   -1.42457584459394     -0.77217408755220     -2.73872142508445
  H   0.03711634086071     -0.53080832044684     -3.39645972809180
  C   -3.70950309482745      3.11940887405449     -2.89022762932927
  O   -3.30172630306328      2.89853947822851     -1.51093609934508
  P   -2.63124448012030      1.54507858492187     -1.03977292566734
  O   -0.97287396175013      1.96748810206088     -0.97860098999320
  C   -0.54701521583939      3.31325161806259     -0.57267228113212
  O   -2.94575110953922      1.61197445277114      0.54586934595023
  C   -3.68331771801233      2.67044584626567      1.23055622600096
  H   -4.58222212391606      3.76071131656570     -2.85250032599522
  H   -3.96317121221297      2.17531813735099     -3.36843369526669
  H   -2.90263051639345      3.61357077181759     -3.42367089635640
  H   0.48362646398499      3.43539410842012     -0.89658511647232
  H   -0.63810005227246      3.41060454704152      0.50741046038253
  H   -1.17237172738634      4.04751055951696     -1.06952866753798
  H   -3.81562652343087      2.32949964469946      2.25112806322644
  H   -4.64821473464851      2.80715988482394      0.75468303332733
  H   -3.11889525944985      3.59795471781218      1.20626379939580
  C   3.51375339185149      0.93566195983688      1.16074973107125
  O   2.07796052662156      0.62389305401810      1.17460298215791
  H   4.01692432656436      0.31290784878339      1.89412426094620
  H   3.65171205251377      1.98973433100417      1.38134522945143
  H   3.87130645988508      0.71819297212829      0.16180486380733
  H   1.74831478806777      0.75692420883206      2.06925891604616
  C   2.28647850243311      1.84043028613959     -2.06584030588030
  N   2.32653053659145      0.66549750397927     -2.01882236942904
  C   -0.96561924101751     -1.00264614322763      2.35569592067473
  O   -0.87844181744349     -0.05788284536520      1.25718452190282
  H   -1.81186801035344     -1.66845850156717      2.20795259237595
  H   -1.06982470724984     -0.46801809765108      3.29628805415146
  H   -0.04263793713078     -1.57626116907368      2.36896887281080
  H   -1.67881197268451      0.50628490339595      1.24521242203944
