44
Coordinates from ORCA-job orca E -2573.093940201818
  Gd  -0.41305346461497      0.14890016006037      0.11015396351637
  F   3.66750019285266      1.16922561837038     -2.43725831647375
  P   2.30770796269579      1.89365357148254     -2.21102671261817
  F   2.67786299685916      2.67714998298968     -0.90484453218015
  F   1.59523883286526      0.64011090478203     -1.42764464999126
  C   -1.64896217292417      3.10879117738011     -0.93979963796268
  C   -2.42593941383384      3.66039788747313      0.23595868522693
  C   -1.32652550161310      4.15599314257735      1.19067311592316
  C   -0.06820620056771      3.39348847888817      0.76275412537888
  O   -0.47665918070113      2.49970036134162     -0.32031560610067
  H   -1.30095339879702      3.89251696163057     -1.61531272523075
  H   -2.15786998467531      2.33088024349433     -1.50402386682206
  H   -3.00296831049215      2.86561870598166      0.70557060554405
  H   -3.10914786515418      4.45172641204232     -0.06300489641315
  H   -1.58209932744265      3.94277535744815      2.22509254198096
  H   -1.16747511720406      5.22708659977610      1.08801049291873
  H   0.34544293460148      2.77601258024289      1.56012736019196
  H   0.71184082775020      4.04665778326628      0.37528847972295
  C   -0.83370648889149     -5.00557221485519     -1.03382628903008
  O   -0.85051417055983     -3.89455832615127     -0.11477200665326
  P   0.39456601340865     -2.89917086998210     -0.05501857727317
  O   1.50323815440419     -3.88394851067859      0.54764452731331
  C   2.89256749525702     -3.51043991071987      0.52542824884407
  O   -0.10718576557934     -2.00170775251254      1.24000198576629
  C   -0.60320585620332     -2.59129742563229      2.48128145102930
  H   -1.83719338884679     -5.41608205882651     -1.03671554981940
  H   -0.12428252250123     -5.75563693325891     -0.69337989680002
  H   -0.57408926325121     -4.67017597477500     -2.03810124827601
  H   3.46747956232726     -4.42309956181069      0.41006040790136
  H   3.15553653272773     -3.02871968595561      1.46470984983398
  H   3.10425373160287     -2.83956965756189     -0.30826071399341
  H   0.15277975188474     -3.26456785753718      2.87490349153789
  H   -1.52267296990478     -3.12924594467595      2.27432038354061
  H   -0.78463235151650     -1.76685426794905      3.16223112184001
  C   -4.39011043722537      0.05410886857982     -0.33224901245643
  C   -3.24842417382355     -0.93010481159504     -0.45544825451537
  O   -2.07220285773336     -0.29479949156305     -0.95860690335024
  H   -5.29830328891691     -0.45853780791053     -0.01611560951765
  H   -4.58396507972461      0.53468146172810     -1.29072974331889
  H   -4.15898062967207      0.81734652857292      0.41103359132700
  H   -3.49284681670345     -1.74330155930978     -1.14202092438124
  H   -3.04167448315243     -1.38757018208448      0.52124700484894
  C   -1.47417652963239      0.74510133103959      2.17037705130959
  N   -1.95798797737788      1.14163668619741      3.14300718768143
