4
Coordinates from ORCA-job orca E -1897.724846371358
  Pr  0.20492541264814      0.34409299550789     -0.60265803436836
  Cl  -1.02523584007936     -1.56953398992471     -1.72459703780871
  Cl  -1.03303926497067      2.27524651180165      0.47011754391506
  Cl  2.44983969240190     -0.22791551738481      0.42053752826201
