35
Coordinates from ORCA-job orca E -2099.147161397357
  Tm  0.01499700581235      1.58087255283653      0.84143988750973
  C   1.93470461861175      0.78041578057679      4.73497639412482
  C   1.74439133341996      0.65887397914864      3.26588702215523
  C   2.60089105893985     -0.11907264041729      2.48531121109146
  C   2.50228327579008     -0.27478383353751      1.10518172499386
  O   1.56803304016520      0.29215655386497      0.40029902426884
  C   3.47354602510951     -1.10487607008271      0.34625802438948
  O   0.74502693628978      1.31641254704410      2.76530165359847
  H   2.78552420223567      0.20919589958110      5.09056680191171
  H   1.02833491400268      0.44351541431184      5.24001973228706
  H   2.06609520835244      1.83286179967058      4.99025565023995
  H   3.40608912717169     -0.63026938955113      2.98795148071446
  H   4.21988896312172     -1.55894835287806      0.98926989384543
  H   3.96519975740278     -0.48027906062762     -0.40111505978647
  H   2.93293998419334     -1.88118807293226     -0.19673033679328
  C   -3.72409444201382     -0.31404317931898     -1.14016304596028
  P   -3.11050424878666     -0.25607761108400      0.53146223996543
  O   -1.85115624178793      0.64777293908906      0.59641833835230
  C   -2.69565666494037     -1.90787674834291      1.05857670107960
  C   -4.37777595549022      0.39728628392075      1.59960314421920
  H   -3.99055885425536      0.68842791720267     -1.47272892058439
  H   -4.61027906902670     -0.94731627872994     -1.18683813972333
  H   -2.96254326985589     -0.72561287066127     -1.80152872048683
  H   -3.57833991033657     -2.54588168141019      1.01094226997873
  H   -2.33124055485353     -1.88861175107178      2.08515685553851
  H   -1.92695211240203     -2.32255224150328      0.40727116646690
  H   -5.26136106752449     -0.23986251594809      1.55641480786501
  H   -4.65246654097033      1.40144705875929      1.27904121449968
  H   -4.01732137351047      0.42995611868713      2.62710008602490
  C   0.88664921470788      6.20700133654686     -0.66995810169715
  C   0.59439587962821      4.85497662552860     -0.24568682050277
  N   0.36316406530919      3.78209846720600      0.09158813703155
  H   0.05869451343704      6.85794134267244     -0.39185225492763
  H   1.01992144307667      6.22311573058961     -1.75098253923793
  H   1.79987973897666      6.54602395085983     -0.18240952245239
