4
Coordinates from ORCA-job orca E -993.186446436274
  Pa  -0.05273149125262     -0.00942035234922     -0.54465194090399
  N   -1.07506987345696     -1.12547902372313     -1.55527325666572
  F   -0.53021826721492      1.76300225121124      0.24736251727404
  S   2.25450963192450      0.19378712486111      0.41596268029567
