6
Coordinates from ORCA-job orca E -2776.212531684795
  Ce  -0.21878727297731     -0.00048803166547      0.20771338835531
  Cl  0.33921941336801      0.10929649510868      2.60644271083430
  Cl  0.66877739206010      0.10868487634608     -2.34357142414072
  Cl  -1.38943131921640     -2.15545905682210      0.00697977659488
  Cl  2.38953215409568      0.05746070805262     -0.42686083189034
  Cl  -1.78930036733006      1.88050500898019     -0.05069361975342
