4
Coordinates from ORCA-job orca E -948.312516268171
  Es  -0.10411594226818      0.73917850100957      0.50142059375236
  Be  0.66718100159053     -1.79535561943060     -1.73915216644631
  O   -0.34320343152365      2.55523231899530      0.68569026050532
  O   0.37662837220130     -0.67716520057427     -0.88455868781136
