25
Coordinates from ORCA-job orca E -3914.937658924416
  Sm  0.43994019703245     -0.40819877135842      0.06654398150728
  C   2.05411046073741     -3.40970728473229      0.38756309776900
  C   1.45687437221028     -3.27005072239678     -1.02177060434774
  O   1.63935641766019     -4.14685579213872     -1.82954005643718
  O   0.74988694853260     -2.18532159220024     -1.20580211275508
  N   2.10899051979698     -2.12185106392705      1.10878101314497
  H   3.02616141129731     -3.89213515988522      0.30452994656740
  H   1.39971546649608     -4.08794273822714      0.93585950441915
  H   2.99010639531643     -1.65003346220072      0.92635595425625
  H   2.07957463930654     -2.26685718933684      2.11066095533916
  C   -1.86255965756909      0.44671494015981     -2.17588451863262
  C   -2.45005052158918      0.68412984964933     -0.77791178339114
  O   -3.58084363405740      1.08640186903425     -0.65716348191141
  O   -1.63712304244322      0.37685529261025      0.20307199856671
  N   -0.38517117909295      0.49240751401661     -2.17504806160163
  H   -2.31176730998255      1.15350543264773     -2.87070926946142
  H   -2.17132327566391     -0.55500909540103     -2.47821824891234
  H   -0.05932989411132      1.44372790322220     -2.30628225587233
  H   -0.00956093509065     -0.05784418972888     -2.93881101583569
  Br  2.38678972780286      1.51870177104029      0.34090078584033
  C   -0.62141046465410      1.05012624193816      2.96976474550926
  O   -0.03346404637600     -0.09995669094503      2.53444340357381
  H   -0.07471253914306      1.91976136121681      2.57158723692290
  H   -0.74006062176608      1.08907419949546      4.05082580536726
  H   -1.59332943464967      1.11235737744761      2.43955298037515
