8
Coordinates from ORCA-job orca E -1147.587229548928
  Gd  0.26859047674595      0.26964984353769      0.74084291105543
  C   2.59201071220133     -0.24992872028337     -0.75693788955085
  N   1.83262975525188     -1.06066431225189     -0.38020112871332
  F   -0.30398584744521     -0.41834823485552      2.55676008032711
  O   -1.49635612158836      0.29092487013644     -0.34846619095888
  H   -2.29881057537655     -0.16457751811896     -0.07906327946698
  C   -0.04483541736175      3.07120414898603      0.35794793296506
  O   -0.31174298242728      4.12583992284957      0.10271756434242
