43
Coordinates from ORCA-job orca E -2912.186487346002
  Lu  0.12168723370720      0.14447312570327      0.79579935105495
  C   4.56318526543473     -2.33347490525597     -0.31380297231874
  O   3.29311916165150     -1.64876468971755     -0.05231836887254
  P   3.13943341123501     -0.07790537915852     -0.35116703839335
  O   2.39836517685692      0.41332656336334      1.06474259953501
  C   3.24265820264293      0.66420318119673      2.23640788803668
  O   1.59458899852620     -0.10034163306265     -1.01525218739627
  C   1.48768088026198     -0.48519381827304     -2.41724918743638
  H   4.93229497186647     -2.71650062036386      0.63116570025081
  H   5.28146344767565     -1.64038476921461     -0.74666271102890
  H   4.36093905647687     -3.14475572950484     -1.00413803238678
  H   2.60605520965022      1.11843895240425      2.98735713802774
  H   4.04490952686561      1.34277312234807      1.95782178429479
  H   3.63552042351714     -0.28074164278511      2.60122244256407
  H   0.51591819828592     -0.15339586742398     -2.76688185683133
  H   1.57404702857261     -1.56515703847890     -2.50370082360526
  H   2.26958172767765      0.00905510728117     -2.99055012795350
  I   -0.87591930855465      0.06359038532430      3.37579772691686
  C   0.10383111434113      2.94763423788646     -1.49046295531443
  C   -0.33709127397125      3.46623701286600     -0.14884707107328
  O   -0.28978796323317      2.35494861658221      0.81141616872759
  H   0.03132187824465      3.74242264988613     -2.23076855893424
  H   -0.54037198237028      2.13001754799558     -1.82643513265562
  H   1.14136446298846      2.61362568507936     -1.46573749853322
  H   -1.36077337068421      3.83374358501915     -0.17039837769998
  H   0.32023399623346      4.24937226305714      0.22119636445106
  H   -0.61683191187837      2.64408867722580      1.67495154329698
  C   -3.55387922064325      0.82558781731485     -0.12061783321917
  P   -2.31919501539376     -0.44735217240624     -0.51671069267008
  C   -2.42949957085753     -0.64324491747723     -2.32126336126475
  C   -3.02323203496421     -1.98447777394376      0.14704817295001
  H   -4.53234424578248      0.53359527775835     -0.50200311671057
  H   -3.27508067849485      1.77821826824222     -0.57042119688489
  H   -3.61943647557248      0.95192532840204      0.95964096558412
  H   -3.45879721478228     -0.85832171027908     -2.60837756263331
  H   -1.80048128792411     -1.46870069399654     -2.65282265543930
  H   -2.11660628124127      0.26881970790669     -2.82923615363806
  H   -4.01852478671737     -2.15010809313808     -0.26533777385957
  H   -3.09715454620470     -1.91751667073492      1.23195056955121
  H   -2.39037232097778     -2.83226584802214     -0.11279270458497
  O   0.65708166850318     -2.08243819598108      0.93233261726468
  H   1.54520697195958     -2.38162894670763      0.67708608403215
  H   0.35139147707286     -2.62662599691741      1.66871883479984
