4
Coordinates from ORCA-job orca E -3506.677784666203
  Cf  0.16324130940619     -0.09312463259277     -0.44110473316430
  O   -0.85296088866045     -1.27626440362908     -1.52637407805616
  I   -1.43243312237958      2.65531677187581      0.27462240110176
  Se  2.71864270163385     -0.46403773565396      0.25625641011870
