5
Coordinates from ORCA-job orca E -1406.088005063781
  Lr  0.13522177440350     -0.92842648262850      0.21744023511452
  F   1.70547224933869      0.39429372825879      0.13161855503162
  F   0.87017359361929     -2.77904383163891      0.72379622205832
  F   -0.78835142732776     -1.04427051146728     -1.61344034016707
  F   -1.22802619003371     -0.28959290252408      1.61264532796262
