19
Coordinates from ORCA-job orca E -1449.884288463810
  Tb  -0.15493053321041      0.71883519176852      0.58528700466888
  C   4.24706533074319      0.00732329262265      0.77198436774255
  C   2.86534018261830      0.09422203263328      1.31454289223468
  C   2.60321505567646     -0.13163079214849      2.66582462777125
  C   1.34657053876985     -0.05327534218385      3.26399043353163
  O   0.27291135011971      0.26147195235623      2.60734611580691
  C   1.15985232161802     -0.33331373946630      4.71219619827732
  O   1.93915108107711      0.39070647008625      0.45665533067259
  H   4.97147994693252     -0.27522634548805      1.52848030299281
  H   4.51794710143973      0.97575148655232      0.34837641253498
  H   4.26410936116475     -0.71246263619217     -0.04689215845982
  H   3.43863339016948     -0.38755372622585      3.29720534107913
  H   2.09317113293502     -0.57161064633085      5.21103828132008
  H   0.46193983257069     -1.16485264117556      4.82167854658993
  H   0.69635112377298      0.53339695781068      5.18469488525746
  N   -2.13254233422830      1.88819529293309     -0.85978635012890
  O   -2.97232774285856      2.42017575531245     -1.47896670585976
  O   -1.23489211677241      2.53951951590275     -0.17381697404499
  O   -1.99754502253823      0.60402792123288     -0.78423855198682
