21
Coordinates from ORCA-job orca E -4454.558724803633
  Ho  0.60768534783853      1.13437895788973      1.14546434771894
  O   0.99830401679761      0.17474468673078     -1.05313868586526
  S   1.48541222160790      1.61186897904277     -1.32126961800552
  O   2.39895667721044      1.84175604716947     -0.07863612476166
  O   0.24061850819125      2.42108710611759     -0.91731295117993
  Br  1.09734239477297     -0.80208021800124      3.04969137980316
  O   -0.18198831904014      2.68521245881094      2.28587889118918
  H   -0.25493647610058      3.62999343092916      2.17554522144648
  C   -2.64870865394250      0.83847148841405      1.54283828197750
  C   -3.24297769051097      1.99193838135227      0.73806431857032
  C   -2.91416542534316      1.63452086789580     -0.73053992783244
  C   -2.13845104284474      0.32228623921596     -0.62874439897666
  O   -1.60202755043736      0.32225053747293      0.70715863148604
  H   -3.37344034003506      0.03585948504995      1.71306043390327
  H   -2.20254709189714      1.14708997952767      2.48427253097744
  H   -2.74732670368828      2.91715162136330      1.02396107196413
  H   -4.31243053026214      2.09668458779175      0.92019234873156
  H   -2.27263314646962      2.39203309235521     -1.17426676394141
  H   -3.80890104101851      1.51887562479208     -1.34218536123598
  H   -1.29685883090962      0.23854762177128     -1.30936179884971
  H   -2.79422632391877     -0.54987097569158     -0.72137182711948
