6
Coordinates from ORCA-job orca E -577.292953744207
  Pu  -0.38735240749155     -0.16451305106967      0.65675388992938
  Li  1.56753564685275      0.56568902190821      3.03933064531023
  Li  -1.03208893743474      0.63616838082995     -2.44575016393290
  Li  -0.99527891025032     -2.32120584765026     -1.79468937608271
  H   1.63438352890784     -0.02429005146355      1.39974347021707
  H   -0.78718892058397      1.30815154744531     -0.85537846544106
