7
Coordinates from ORCA-job orca E -951.492730094627
  No  0.00000422697270     -0.00002004182105     -0.00015526397731
  H   -0.00002476883365     -0.00001698306371      2.03328645047104
  H   -0.00004585078271     -0.00001087651022     -2.03359092847692
  H   0.00003834930445     -2.03339710220772     -0.00012556397025
  H   0.00003877268453      2.03335876924299     -0.00012091491146
  H   -2.58848580092390      0.00003791686859      0.00034212596149
  H   2.58848507157857      0.00003831749111      0.00035409490341
