42
Coordinates from ORCA-job orca E -1612.981306760422
  Nd  0.59119704136164     -0.24418002483909     -0.16560810182000
  C   -3.56803725389981      5.46211843157800     -0.89496476664593
  C   -3.48029627888954      4.52085160555519     -1.93359021146865
  C   -2.55559785304197      3.41983133468876     -1.87430336116575
  C   -1.73774955758237      3.27965020990899     -0.79117108052548
  C   -1.82336322363616      4.22437561283265      0.24722870978430
  C   -2.74880260566581      5.31983249813025      0.18906346791258
  C   -0.76850161489447      2.13138146333869     -0.68008169920972
  O   -0.74623748244855      1.26886962485267     -1.59357998310437
  O   -0.04056341372570      2.07262834081485      0.34435651542368
  H   -4.27306111209131      6.27767760651380     -0.96300721932396
  H   -4.11999286223952      4.61667113334029     -2.80152733211233
  H   -2.51297396599927      2.70517336997035     -2.68497371821830
  H   -1.17320336979253      4.10888792308105      1.10564519178401
  H   -2.78211991364465      6.02011399420218      1.01208821098850
  N   0.22344731010462     -1.85661794579215     -2.18725632032074
  H   -0.51842846002688     -2.49693897475827     -1.91441994885491
  H   0.98035167946770     -2.44285861549246     -2.52735202305396
  H   -0.12938192643894     -1.35648740145470     -2.99908538590327
  C   7.80520365428704     -0.38714862087965      1.19813165358712
  C   7.48133391145417      0.18566887637117     -0.02767989311423
  C   6.16150273788725      0.25252584588739     -0.42490433412957
  C   5.15857380434122     -0.25585044957996      0.40850946191415
  C   5.49126850061231     -0.83254646448846      1.63806230126911
  C   6.81481620860109     -0.89547624236028      2.02864244552835
  C   3.75172484102564     -0.21278568234473      0.05086700394293
  O   2.83422600693742     -0.67376761938028      0.73057947082891
  O   3.34622895183021      0.36329519389166     -1.09950303640691
  H   8.84057874353976     -0.43728812543435      1.50533693922535
  H   8.25922425636336      0.57533971109915     -0.66773039843124
  H   5.94557547794568      0.69805510984802     -1.38974902169432
  H   4.70803892979884     -1.22310818002799      2.27134700747125
  H   7.07719929603634     -1.33968757258097      2.97766687756545
  H   4.07451860687133      0.74323503302002     -1.60623791466142
  C   -3.05416218762249     -0.39516680138286      1.72697195610843
  C   -2.00013248351418     -1.48187788862882      1.69895446702851
  O   -0.90679650929828     -1.09223604494541      0.87929829970649
  H   -3.89558053826816     -0.69339738215829      2.35077543144233
  H   -3.42822033016167     -0.20198210851906      0.72026104112816
  H   -2.63750238918449      0.52689478401386      2.13543371565708
  H   -2.41468997322414     -2.41038038707652      1.30337383467833
  H   -1.62861465317513     -1.68639517081510      2.70383174719012
