4
Coordinates from ORCA-job orca E -3369.135196776645
  Am  -0.28530279005603      0.84726095524973      0.49226336569523
  Br  0.04105204832781     -1.29386987003364     -1.31595901442474
  H   -1.70001066724989      2.10419892252604     -0.30287571098386
  Mg  2.54075140897812     -0.83570000774212     -0.31002864028663
