4
Coordinates from ORCA-job orca E -1586.346091715391
  Am  0.04306959239101      0.23941686267225      1.19015112654283
  In  -0.47517443945132     -0.84837023925705     -1.75552493174076
  Cl  -0.86863990416951      1.99435372514285     -0.39504918549052
  P   1.89723475122982     -0.56351034855806     -0.47617700931154
