5
Coordinates from ORCA-job orca E -3387.311601323900
  Pa  -0.35280656025147     -1.27860438505597      0.86820937648973
  Sr  2.48805171625015     -0.42620245673918     -1.03976395344421
  N   1.42431040130697     -1.87482676729744      0.65460609054378
  Se  -0.43062221392564     -0.35462276490815     -1.64080244069822
  Cl  -2.43444334338001     -0.71278362599925      2.22981092710892
