7
Coordinates from ORCA-job orca E -2303.298514058390
  Pr  -0.13599428241095     -0.35385498858381     -0.42879124156802
  I   -1.56651823535245     -1.69920514944874      1.95995099955657
  I   -0.85504458302328     -1.57653209994504     -2.95239682677024
  I   1.52895834815660     -2.26610084225506      1.33811752788397
  I   0.68346891168621      2.19062764883912      1.51983990232292
  I   -1.95706429633516      2.20434998005694     -0.28757482677546
  I   2.30220413727902      1.50070545133657     -1.14915553464972
