5
Coordinates from ORCA-job orca E -377.717746725646
  Ac  0.13976120914713     -0.92654466223014      0.21311515814595
  H   2.02448443830877      0.26399533155483      0.19923585373060
  H   1.21086977558826     -2.79393069096124      0.78615799972299
  H   -1.12948882161053     -0.94990622831952     -1.61850538836565
  H   -1.55113660143364     -0.24065375004393      1.49205637676611
