7
Coordinates from ORCA-job orca E -4110.588752636013
  Cm  0.46620007857557     -0.12266085779614      1.16573086141866
  H   0.70001040330713      0.26977808150730      3.16618312446285
  K   0.64924468739116     -0.01352297458759     -2.68592029557581
  Ge  -1.00893258023676     -2.12662589985359     -0.31627076900687
  I   -0.96810973910120      2.16084080217755     -0.32824350388102
  Mg  -2.90739391145373     -0.11325033218165     -0.67515096592894
  I   3.06899106151782     -0.05456881926587     -0.32633845148886
