30
Coordinates from ORCA-job orca E -1909.219030901264
  Sm  0.76054219141666      0.07905532932761     -1.65073667097870
  C   -2.20126348673503      5.63745728828566      1.23115368347516
  C   -2.52390242387903      4.37027385286252      1.70082944934692
  C   -1.92130865805023      3.25590012155072      1.14463842402372
  C   -0.99287027997602      3.41591233769312      0.11836945657669
  C   -0.67038299986436      4.68622238271007     -0.35369724303314
  C   -1.27748466037589      5.79678064033031      0.20581789521849
  C   -0.35412510387013      2.23365070753519     -0.47875655071697
  O   -0.63993938889098      1.05534537828882     -0.06701743885143
  O   0.49636318835505      2.35795234115712     -1.42635807231747
  H   -2.67536322000856      6.50698638203961      1.66574599903610
  H   -3.24633209736327      4.25500175484986      2.49647601400715
  H   -2.16427325773972      2.26146194036493      1.49077759540785
  H   0.04773636219001      4.78808302230782     -1.15468246334232
  H   -1.03526293551562      6.78592933431300     -0.15626002814932
  S   6.10102181525377      0.19801720262356     -1.49747761986125
  C   4.47299925014146      0.07736578703070     -1.48680183711774
  N   3.31299685064025     -0.00404173510948     -1.47391512789818
  O   0.18517383885301     -0.83983701312673     -3.37934658521725
  H   -0.22351464985725     -1.07745870802540     -4.20916633391128
  C   0.06394248938993     -2.89470730868496      2.00213508421090
  C   0.17758877981485     -1.78563540545077      1.17762418309360
  N   0.52582412272376     -1.92118050434594     -0.10486238039498
  C   0.73974731941629     -3.15997397100835     -0.55845961845445
  C   0.61912902329964     -4.25562769958584      0.28061452732204
  N   0.28718894442099     -4.12586874052184      1.55978400766772
  H   -0.21555825096009     -2.78192490445680      3.04119237415561
  H   -0.02474092679851     -0.78432071928590      1.53489682339642
  H   0.99613404265132     -3.27300286132235     -1.60423825651267
  H   0.79286713719039     -5.25699370909837     -0.09021048833326
