12
Coordinates from ORCA-job orca E -2005.802354211105
  Pr  -0.34033654826239      1.48030753788324      0.59873532958587
  S   3.85903357799656      0.89402489234206     -1.16441632277019
  C   2.70042602431193      1.21099346784123     -0.17866053321820
  N   1.80575480658271      1.44596998507271      0.60572277375995
  O   0.17938333573668     -0.81485155652497      1.31241087935935
  H   1.10517216872266     -0.99074880304125      1.51547457663602
  H   -0.35178428023333     -1.43255222242030      1.82416499592253
  O   -4.65328979254821      1.19132878259897      0.15671303091584
  S   -3.97540722159098      0.04067975971931      0.62977570793149
  O   -0.44971238344212      1.39143478682597     -1.09345895138481
  O   -2.54155016307469      0.16945738788699      0.83084464487401
  I   -0.56118952419876      2.05635598181599      3.29569386838807
