16
Coordinates from ORCA-job orca E -2525.064097444757
  Tm  0.21827932750471     -0.20511942764855      0.02702327251836
  N   -1.53259827256307      2.00928704820273      0.18662617958985
  O   -2.28923470334094      2.95062685272046      0.33036849562769
  O   -0.27887819011214      2.15731544401157      0.17958288488863
  O   -1.96036517538238      0.82885951765190      0.04072489607146
  C   0.72674763655143     -0.14850714157552      3.29340020144686
  O   0.09552043583369     -0.28315781331074      2.08222188190102
  H   0.39634417837003      0.75303028520389      3.83813489365090
  H   1.82063134711204     -0.07291577561457      3.18624280236469
  H   0.52877432900598     -1.00542818143447      3.96066714755035
  S   -0.24353382050299      0.88206533405118     -5.03954219005102
  C   -0.08079407008805      0.51685206499870     -3.44803480929963
  N   0.03522077844778      0.25829122609290     -2.31606527891196
  Cl  2.78334315608576     -0.01284396882512      0.03744374131990
  C   -0.60479016355122     -3.54788457749752     -0.51211572732875
  N   -0.35006679337065     -2.41977088702681     -0.35787839133841
