4
Coordinates from ORCA-job orca E -1626.060554248549
  Cf  0.13992424060508      0.22555917963639     -0.41986499715615
  I   -1.17734986810317     -1.74849485274039     -1.96035056009772
  I   -1.14636645583934      2.57145661975763      0.48586841216014
  I   2.78028208333743     -0.22663094665363      0.45774714509374
