5
Coordinates from ORCA-job orca E -1999.060947062413
  Th  0.14053426401522     -0.92835164076093      0.21446557837212
  S   2.03034574983406      0.69082353946011      0.10218326658974
  S   1.00491720704607     -3.17855935409559      0.84491495934055
  S   -0.97358595486692     -1.06403091757127     -2.01011469848233
  S   -1.50772126602842     -0.16692162703231      1.92061089417992
