4
Coordinates from ORCA-job orca E -3539.332649736239
  Cm  -0.19086910002125      0.08896417635883     -0.52911072827622
  C   -0.67706699545643     -1.63630964515785     -1.61149779403771
  Si  -0.86307600656289      2.52979571010442      0.49036151760054
  Br  2.32750210204057     -0.16056024130541      0.21364700471339
