44
Coordinates from ORCA-job orca E -2283.435358891139
  Tb  0.08553181514838     -0.08225066477639     -0.10169763642650
  N   1.85155460025765      0.13086955705572      1.71557766918373
  C   2.63919900616973      1.37891405241385      1.60042343456985
  C   1.68972408563849      2.54617748532017      1.43910625255928
  N   0.88951159965391      2.35831611517888      0.20991439389317
  H   1.38348580338368      0.11713355884634      2.61790670509504
  H   2.46856964106954     -0.67367735803679      1.69523926127100
  H   3.27614844692282      1.29119356385211      0.71963391689183
  H   3.28295474413091      1.53534704245463      2.46711767180383
  H   2.25124557788403      3.48112112059732      1.41862998475359
  H   1.00273686427854      2.58588135692873      2.28503892791957
  H   1.45368543250411      2.62771241562684     -0.59754271269425
  H   0.10501332658516      3.00151658060517      0.23000306276489
  N   -2.16790356962950      0.77848740411593      1.44194960518091
  O   -3.11399110016690      1.02702949150380      2.12205952954147
  O   -2.27485432833485      0.40156498550285      0.22076850081991
  O   -0.96801801021429      0.84949762249310      1.87007574761146
  S   2.76242263317992      2.22298040676808     -2.79469775273305
  C   2.41320171121936      0.83343564072672     -2.06102872328996
  N   2.08918039560858     -0.14379386285690     -1.48075561785712
  C   -0.72021879602865     -2.28860884918108      2.58681544013881
  O   -1.06909059290954     -1.98029331078612      1.22339093403139
  H   -1.17714695815918     -3.22776218233085      2.89128804692287
  H   -1.02887522263645     -1.48608193026770      3.25534504754676
  H   0.36064318517883     -2.39812323302670      2.61445184490585
  H   -2.02715714277378     -1.98508670828752      1.14194046608126
  C   -2.11326333609971     -3.32796615666700     -3.77942277093106
  C   -0.75646613197484     -3.04434730316156     -3.78656851474448
  C   -0.24667485765527     -2.20798306781393     -2.81009815231384
  N   -1.00624374778710     -1.65960782863404     -1.85170157728192
  C   -2.31832887405100     -1.92849304549904     -1.86145970754453
  C   -2.90899465000603     -2.75546306126610     -2.79989367447980
  H   -2.54376042189293     -3.97761966495215     -4.52869161477730
  H   -0.09915560237735     -3.45683462181869     -4.53785627981268
  H   0.80447570228046     -1.94561364629373     -2.79652333029863
  H   -2.91468859341385     -1.44224229906878     -1.09930459845451
  H   -3.97295791104508     -2.93734107680852     -2.76151223751278
  N   -0.63757505713247      1.34444896292307     -2.10393155321065
  H   -1.37675993779887      1.99638473803488     -1.85978107548411
  H   -1.01750097443865      0.76189056589251     -2.84274869542487
  H   0.11762066531271      1.88348500364782     -2.52853490550614
  O   1.38156798055119     -2.24588491665437      0.06141530580473
  H   2.05881170881868     -2.13538167991176     -0.61955800495346
  H   0.96014089074967     -3.10113120238867     -0.06048261355952
