6
Coordinates from ORCA-job orca E -5591.890468320471
  U   -0.16597751884379      0.09050739148626     -0.12782798825013
  C   0.98960940350328      0.30285520993632      1.59496235324233
  Te  0.56038680622256      0.45823186592809     -2.88540548637711
  H   -1.21250735373820     -1.72018058408193      0.04953381031767
  As  2.18938848244200     -0.95616736206304      1.03906452801996
  Br  -2.36088981958585      1.82475347879430      0.32968278304729
