7
Coordinates from ORCA-job orca E -3369.596746725383
  Pm  -0.01425065165679     -0.01102057775299      0.00519698479263
  Cl  -1.12492167974019      0.92058555388680      2.27773101862359
  Cl  -0.90966731942098      0.92515663658887     -2.35515917340880
  Cl  1.19275882519066     -2.23906299162401     -0.89959721513355
  Cl  0.87077871487587      2.30365376703809     -1.04664954108317
  Cl  -2.32505641707488     -0.99340609375467      0.98240956532395
  Cl  2.31036852782631     -0.90591629438208      1.03605836088536
