24
Coordinates from ORCA-job orca E -1684.571512351006
  Ho  0.11105737661312     -0.52720808495103      0.34224591928549
  C   2.87700629431418     -1.16242938740227      2.01255080257229
  C   1.47521230023253     -1.72889013751455      1.99134998928246
  O   0.57559815103170     -1.05902575083450      2.57741371214651
  O   1.17682669254020     -2.47005625961549      1.00989355109764
  N   2.66280733411715     -0.12542763137398      0.94357393231940
  H   3.63092438273799     -1.88623500551656      1.72343914278007
  H   3.12117690586091     -0.69710947944438      2.96073214013737
  H   3.22044836657349     -0.34150337890857      0.12473807892378
  H   2.96649913924044      0.78496034928477      1.26724973150448
  N   0.06872691370367      0.73238481297377     -2.09712203213473
  O   0.04065410812561      1.25137226096309     -3.15546347444596
  O   0.93998597918115     -0.15992279197336     -1.76945265461943
  O   -0.77087647731353      1.00138431187737     -1.15459181865598
  C   -2.15871422431299      1.86783830066235      1.51732437264529
  O   -1.26374267822518      0.73554250740931      1.69032332010634
  H   -1.76749609852841      2.72423030471187      2.05919170265352
  H   -3.14806889153994      1.60385671786984      1.87969930148090
  H   -2.19039261739941      2.08342162326218      0.45568298671710
  H   -1.16880454225039      0.51369280032300      2.62420362610852
  N   -1.37043091377148     -2.20070539907822     -0.64991224066823
  H   -1.31102383813909     -3.05449078076848     -0.10009280559494
  H   -1.04134038313733     -2.44767286784098     -1.58049433097556
  H   -2.35643327965443     -1.97880703411514     -0.75148295266640
