5
Coordinates from ORCA-job orca E -11184.966836989843
  Md  0.06690441417283     -1.08046810766357      0.58998729389384
  Br  1.86267657662233      0.58335620050821     -0.63354388251838
  Br  0.88541623031411     -3.51286066025641      0.86026355621945
  Br  -0.48880670198777     -0.52455052428379     -2.03101642969405
  Br  -1.63170051912148     -0.11251690830444      2.28636946209914
