4
Coordinates from ORCA-job orca E -1357.560589982565
  Tm  0.02984861475345      0.94318920244721      1.78795442380846
  Li  -0.28003536115890     -0.08838055867237     -2.46423144971900
  B   -0.30064317159090      0.75296555655922     -0.47227257572582
  Sb  1.14731991799635     -0.78588420033407     -0.28805039836365
