6
Coordinates from ORCA-job orca E -13387.098708882753
  Pr  0.01417046794825      0.01218614777671     -0.00059514423762
  Br  0.02729635663225      0.02367503832863      2.58767563897055
  Br  0.01196320981025     -0.00208157733249     -2.58878671402457
  Br  -1.34573016566754     -2.22557507370363      0.02193521052842
  Br  2.63721982586432     -0.06171313440000     -0.01025909206577
  Br  -1.34490969458753      2.25350859933077     -0.00995989917101
