17
Coordinates from ORCA-job orca E -1936.492215142695
  La  0.01038691076203      0.59630773016016      0.08755475419084
  S   5.03097795734578      0.78988328596778      0.93556913785769
  C   3.50065000273632      0.77376222670885      0.50931048776743
  N   2.35368730061705      0.76112201449521      0.19923685729488
  F   -4.12488211672305     -1.19193181404185     -0.27366220457048
  P   -3.73942418958176      0.18762079948388      0.34674648002559
  F   -2.52397377829325     -0.33656730451708      1.25007530825995
  F   -2.78784838530604      0.68214114756597     -0.83830746399446
  S   -1.56528936198488      2.93709010191645      1.43727747038996
  C   -1.02203920424233      3.09751944854746     -0.10956324770554
  N   -0.53774983107178      2.90365797406836     -1.15822877879685
  O   0.22684786421551      0.18723437937567      2.61407896975266
  H   0.75074207318726     -0.56402010297519      2.91091537593912
  H   0.35008903980712      0.89297135676609      3.25555838944874
  N   -0.09641450170564     -1.97428628309384      0.15217927265362
  O   -0.12442391141144     -3.15660500488387      0.28715288556116
  O   -0.54533586835091     -1.46959995554410     -0.96389369407444
