5
Coordinates from ORCA-job orca E -5494.066747604670
  Th  1.96218698342381     -1.31425370817563     -0.61241497845276
  Ga  -0.03418553298828      0.64931634785193      0.20857635308420
  Se  -0.15324471392491     -2.32779941889605      0.49520195502897
  Na  -0.97020559201456     -0.94716512819354     -2.37175615582380
  K   -0.11006114449606     -0.70713809258668      3.35245282616338
