57
Coordinates from ORCA-job orca E -1926.859225640716
  Ce         -0.39226411379672      0.45025388905986      0.19080731387749
  C           4.01720975435369      0.37734290621649      1.73783975629795
  C           2.94421771268363      0.35166647509302      0.69564522433953
  C           3.28128671950985      0.23539898925288     -0.65987024678710
  C           2.37508499309187      0.29907129481151     -1.72481547635856
  O           1.10138390120775      0.44366894061648     -1.57303469889584
  C           2.86633243788478      0.21433915062334     -3.13639028457478
  O           1.72963685023471      0.44940799372290      1.11976326054536
  H           5.01036507039951      0.19618283185784      1.32585847817389
  H           3.80044116813661     -0.36495863563888      2.51350171403683
  H           4.01375862156987      1.35763647599500      2.22996191948237
  H           4.33156240207226      0.13473412505085     -0.90510229330157
  H           3.94425967279178      0.06351868968813     -3.20153687024426
  H           2.60529024936138      1.13647305533444     -3.66935114479359
  H           2.35342204533123     -0.60538801366065     -3.65229733682503
  N          -2.92710940249138      0.03559098953446      1.14949499627229
  C          -2.92092087955669     -0.36875381035182      2.58292402986651
  C          -1.93626715530157     -1.50463841414312      2.79341023630156
  N          -0.56389480541203     -1.05362668231482      2.44041709634326
  H          -3.48524717531077      0.87893353978978      1.03540657850773
  H          -3.42705937919677     -0.67592045695971      0.61915803409356
  H          -3.91545805647035     -0.67163044595475      2.93595922741699
  H          -2.61853408237061      0.50245411151216      3.17891172744407
  H          -2.19454029216349     -2.34924880058255      2.14130495464640
  H          -2.00510039467891     -1.86476622399683      3.82826618718285
  H           0.06165061048157     -1.85563044731451      2.41042576409529
  H          -0.19650878244097     -0.47588468723679      3.19573304754854
  C          -0.25258029463670      3.80810456347264     -2.60133310762236
  P          -1.63339749397602      2.64162201299904     -2.53975984004130
  O          -1.66980378133690      1.89656258099834     -1.18232227770724
  C          -1.42972156115141      1.48027196370215     -3.90966005145439
  C          -3.16222805073841      3.56647158995587     -2.80307373585480
  H          -0.35416849322491      4.55139882079534     -1.80417192566632
  H          -0.22818810398834      4.32958455754588     -3.56376357512051
  H           0.68700608449404      3.26173469883577     -2.46792181369691
  H          -1.37674593380153      2.01255456435351     -4.86497137847683
  H          -2.27911291461418      0.79028518526208     -3.93968145639220
  H          -0.50496858778016      0.91320714834810     -3.75809539081076
  H          -3.29419571042099      4.30635117328657     -2.00738508717646
  H          -4.01586001930830      2.88150985886007     -2.79738349155229
  H          -3.13270523646217      4.08631358609092     -3.76638305656245
  C           0.54197520482128     -2.72255419958066     -0.62429255932369
  C           0.65172404645721     -3.99883078746564     -1.16657633787267
  N          -0.36574378374818     -4.58439304648845     -1.80023952662350
  C          -1.49894176359381     -3.88761837148055     -1.89366209253254
  C          -1.62344270848034     -2.61141197009096     -1.35287537348917
  N          -0.60208248846417     -2.02416983058883     -0.71174390846086
  H           1.38942418569538     -2.25017712933195     -0.12532221718969
  H           1.58204295990974     -4.55854151878197     -1.08869378195263
  H          -2.33334723443711     -4.35547338399574     -2.41302309355804
  H          -2.55404945326606     -2.05335805282712     -1.44494500803174
  C           0.25593825871490      3.02625572438969      2.73784880327804
  O          -0.58030493089460      2.53758257289959      1.64694089666698
  H          -0.35298927357764      3.20224160938856      3.62891355125867
  H           0.76658463520204      3.94533976989974      2.43863574560059
  H           0.99537872934607      2.24830647850927      2.93067029898883
  H          -1.20445288895894      3.22999190013396      1.39679754738456
