7
Coordinates from ORCA-job orca E -1010.604451011064
  Lr  0.00001929004884      0.00000286541743     -0.00006165961196
  H   -0.00001226296542     -0.00000691141021      2.02590273406754
  H   -0.00002116193318      0.00000225915419     -2.02597430630547
  H   0.00000387188109     -2.02595630648700      0.00003181072000
  H   0.00000486007976      2.02595346422981      0.00003261675559
  H   -2.02593627047724     -0.00000317891101      0.00002994048497
  H   2.02595167336614     -0.00000219199322      0.00002886388932
