23
Coordinates from ORCA-job orca E -4765.048870907253
  Lu  -0.13696047320325      0.56866487705185      0.09813176186002
  N   2.12541269827293      0.21714010984007      0.38007226596599
  C   2.98000553575532      0.18680310792319     -0.64889360317122
  C   4.33326437465484     -0.03019330831295     -0.48550616254616
  C   4.81054493075887     -0.22352012650053      0.79873478596332
  C   3.92827447628789     -0.19457900957028      1.86884003555137
  C   2.58306160319383      0.02864244048622      1.63410057752254
  C   1.56783586721171      0.07228049709384      2.72644350654711
  C   1.89621867826419     -0.08942690084989      4.06072897042319
  C   0.89523045490905     -0.03703268893081      5.01964011415991
  C   -0.41468295890201      0.17564167244758      4.62801859933122
  C   -0.67234905400924      0.32995682787638      3.28079788819029
  N   0.28924523399679      0.28036237998962      2.35178399332851
  H   2.56026237460478      0.34070166974403     -1.63583709250781
  H   4.98676562183213     -0.04678768080783     -1.34422423090508
  H   5.86309178927648     -0.39757833271299      0.97248700730246
  H   4.29907743026470     -0.34791051598186      2.86940802469045
  H   2.91752309288901     -0.25381414742955      4.36414696639429
  H   1.14238513955464     -0.16162858189271      6.06450240566334
  H   -1.22195037234685      0.22323115540244      5.34269931535311
  H   -1.68261460174431      0.50007990753371      2.92823845931293
  Br  -1.21979085995184     -1.46498471725124     -0.95426975007171
  Cl  -0.58575098156980      2.85635136485171     -0.37324383835816
