34
Coordinates from ORCA-job orca E -1737.151319184755
  Pr  -0.18189001675931      0.93030952689417      0.69909516421240
  C   4.15496142576834     -0.88938093601395      0.67701018272268
  P   3.16637748639555     -0.01433095004495     -0.51331287802969
  O   1.71090018627465      0.19134325149504      0.09913389974839
  C   3.02656534050316     -0.96027214569608     -2.01175278533763
  C   3.86903359078713      1.58323448080132     -0.85406506218308
  H   5.15429452238877     -1.03789790215680      0.26357140606470
  H   3.71675372683030     -1.86366300771234      0.89021414473011
  H   4.24180139160223     -0.31159080210972      1.59626090255094
  H   4.02466277068225     -1.11521803234284     -2.42553674262062
  H   2.42783688823495     -0.42278593793556     -2.74632094014976
  H   2.58243553032682     -1.93316927706813     -1.80480765032821
  H   4.85989264319452      1.44856351411027     -1.29171999745176
  H   3.97351342811413      2.15774216177284      0.06586308214193
  H   3.24615687810250      2.12862019336497     -1.56280262027166
  C   -6.76659267891285     -0.59352592366122     -2.06692665799186
  C   -6.91758467165767      0.48967551551415     -1.14771731009399
  C   -5.81667193122584      1.01275255789957     -0.50142898000285
  C   -4.55961149011971      0.46882120276973     -0.76407889090382
  C   -4.41805359869781     -0.63492164952055     -1.67455584870462
  C   -5.51972553287000     -1.14675907697550     -2.32200627587551
  C   -3.35574667306702      0.97019728558939     -0.11376440164294
  O   -2.29777778473124      0.30211444135312     -0.07778370596391
  O   -3.31533853484774      2.12762117101779      0.49663024675951
  H   -7.64727896518086     -0.98299839482112     -2.56182407971938
  H   -7.90386117710283      0.89336260905996     -0.96292881855092
  H   -5.96477845258973      1.81329450245322      0.21184362089539
  H   -3.43447276312461     -1.04521582546767     -1.85157491734540
  H   -5.41647219478516     -1.96812493106860     -3.01608927439919
  H   -4.09724359480347      2.68717984620324      0.37576989361290
  N   -0.27895271385027      1.08896396184541      3.02123950232188
  N   -0.35798393253013      1.28740982093372      4.21885014307915
  N   -0.42884637823228      1.46423679944339      5.33100032388099
  F   -0.18880272411657      2.57241195007367     -0.35198467515410
