7
Coordinates from ORCA-job orca E -15961.220367601829
  Pr  -0.85026752844334      0.13186639228916     -0.34654064819123
  Br  0.96966601516224      0.09096754826324      2.14855349440170
  Br  1.16448690366298     -1.55571404663572     -1.52221069407124
  Br  -1.46472487147877     -1.44825975543826     -2.67735923256070
  Br  -0.72359446274305      2.72703005311379     -1.01823951890828
  Br  -2.21257518277040     -0.51122469356411      1.93430891975344
  Br  3.11701912661030      0.56532450197191      1.48147767957632
