29
Coordinates from ORCA-job orca E -2091.226824734960
  Tb  -0.13726240174402      0.14391286696310      0.38849582700230
  N   -0.19334899842633      2.89565797507729     -0.29590617775285
  O   0.89190287746848      2.23536890823220     -0.11664992636577
  O   -1.25752528172313      2.21816820433207     -0.12294424642796
  O   -0.19748461044856      4.04816707694390     -0.59793427603810
  C   4.56229973588437      0.06754434118832     -0.80211791793212
  C   3.28348861118871      0.50154947973237     -0.48513397148892
  N   2.38186430100333     -0.33420002051495      0.02937053363645
  C   2.76591788330709     -1.59652754465016      0.22188253833696
  C   4.04436657560576     -2.01570579946643     -0.10797789180529
  N   4.94928252284990     -1.18880057768715     -0.62020403225291
  H   5.28748393531951      0.75667095152481     -1.21501189361889
  H   2.97589636972082      1.52540338289876     -0.64363234453881
  H   2.04247492503989     -2.27338639639420      0.65574931525671
  H   4.34247552338907     -3.04423411232060      0.04803728372492
  S   -1.56619785319883     -1.88181067058196      4.12583948250693
  C   -0.38421318289429     -1.46083276068074      3.10949221289624
  N   0.40840569031659     -1.10495688967046      2.31251938099720
  C   -3.52652233469502      0.64597955545445      1.31622878357863
  O   -2.24150031190505      0.06057963160213      1.57381682032545
  H   -3.89704451593837      1.13534036639072      2.21508299948236
  H   -4.22915996125899     -0.12006451207867      0.99244443259045
  H   -3.39911248269678      1.38587727013530      0.53368730645704
  H   -2.29974366562753     -0.51780551197590      2.35795606486106
  C   -0.59938339575572     -1.87137202943648     -2.31039166125403
  O   -0.45931528971957     -1.03197505770906     -1.20319673788474
  H   -1.10960786719403     -1.35472733630481     -3.12750059327368
  H   -1.18172366053019     -2.76037779292777     -2.05491763254943
  H   0.37778686266299     -2.19964299807601     -2.67738367846922
