5
Coordinates from ORCA-job orca E -1005.877787283457
  Gd  -0.59347638789351     -0.78875724975892      0.06560087217891
  Be  2.81531399227469     -0.55962111211665      0.53334710093177
  O   1.43511471382524     -0.45998560945661      0.26473968102753
  O   -1.21734797341540     -1.90189625178582     -1.60211825557159
  O   -1.74511434479102     -0.93677977688198      1.81049060143336
