5
Coordinates from ORCA-job orca E -1241.647592665337
  Pa  0.47769184427278     -0.55586340647640     -0.59552076050082
  H   1.94414333786504      0.86884209190130     -0.44942458434756
  Mg  0.77924717209562     -3.20373531432453      1.37774300240515
  H   -0.54630283321281     -0.79388545661457     -2.35553347676754
  K   -1.96028952102063     -0.96239791448579      3.09479581921076
