38
Coordinates from ORCA-job orca E -868.472458565091
  La  -0.26439333090391      0.59365834406804      0.63225727373462
  N   1.72915766900053      1.44532272219969     -0.89148129885815
  C   2.77362563300762      2.14776794081179     -0.09868197704338
  C   2.12339413244281      3.21598589140471      0.75427433162514
  N   1.17663951820731      2.62539220018366      1.74174794302364
  C   1.85517610760795      2.11607422322573      2.97465780233892
  C   1.71219524331264      0.61551535867305      3.15098309381441
  N   0.27782280882980      0.23402121847568      3.17186460977145
  H   1.44778673621300      2.05005808145456     -1.66088282722512
  H   2.13124699800767      0.63109440507498     -1.35232495963183
  H   3.28417119642043      1.41107181859135      0.52364610427902
  H   3.52998763046292      2.59727423352296     -0.74121351614947
  H   2.88737257108590      3.80935728628922      1.25899748380181
  H   1.55967887915655      3.90029230549565      0.11665842884479
  H   0.57343701630354      3.38612179655613      2.03634924776379
  H   2.91378342097620      2.37514870301430      2.95179148464975
  H   1.43104044722332      2.62346444289253      3.84206662419160
  H   2.19331061510970      0.07075603014803      2.33014070797529
  H   2.22843956309085      0.30391457963911      4.05911495066723
  H   0.19993559192363     -0.76040296662286      3.37533448888400
  H   -0.18877010177384      0.70878381073865      3.94031694212749
  C   -3.30481503394551     -0.38749231064184     -0.54091229172351
  C   -4.40567105842388      0.13462292285165     -1.43564158354780
  C   -4.78785272110956      1.44329047918077     -0.74628669962391
  C   -3.44230875831923      2.01273778627411     -0.34182350210246
  O   -2.58400603743486      0.83225350136757     -0.09414068058494
  H   -2.58421970489468     -1.03078592647189     -1.04456576775996
  H   -3.69736832090307     -0.87843277036491      0.34856323343185
  H   -5.23374595608037     -0.56652863564611     -1.49931128340942
  H   -4.03027428747079      0.31496020701776     -2.44251130131025
  H   -5.40325865469780      1.25241096351153      0.13192789606341
  H   -5.32727533681140      2.12466943509216     -1.39890511800161
  H   -3.47005959567731      2.60144043529167      0.57243516104745
  H   -2.98207998576614      2.58418735561021     -1.14708675786928
  N   0.44651440666862     -2.11705009037414     -0.09451262765225
  O   0.72029898995151     -3.22364075455957     -0.36619726721837
  O   0.19358045892335     -1.20153646911924     -0.96930664010083
  O   0.36810325028660     -1.68227855485678      1.12925829177679
