7
Coordinates from ORCA-job orca E -16224.307389509107
  Es  0.00607696253964      0.00558177777534     -0.00139966374446
  Br  0.77660305298272      0.76731433784284      2.55148167973574
  Br  0.76397822306742      0.78055319169765     -2.55548631236976
  Br  -0.81417860237192     -2.50557150217988      0.84036193658957
  Br  -0.76127038797114      2.53759025395996      0.82374199353742
  Br  -2.50705045870535     -0.82397143023114     -0.82703464720178
  Br  2.53585121045863     -0.76150662886477     -0.83167498654673
