7
Coordinates from ORCA-job orca E -2300.374889809401
  Np  0.00000033284450     -0.00000184103286     -0.00000095424644
  I   0.00000362030268     -0.00000501892422      2.83821571017402
  I   -0.00000394602164      0.00000106283301     -2.83822303802777
  I   0.00000334932372     -2.83821761231372     -0.00000473671742
  I   0.00000392738905      2.83821807667765      0.00000315886486
  I   -2.83821884159485     -0.00000262268190      0.00000313544785
  I   2.83822155775653     -0.00000204455796     -0.00000327549510
