37
Coordinates from ORCA-job orca E -4550.602044842783
  Gd  0.33564305177931      0.68386145406435     -0.14861091560529
  Br  0.22744689298604      2.93941151417136      1.35875639947850
  C   -0.02506407814777     -3.35804217426672     -3.18845618871752
  C   -0.18214461378784     -2.30887642211353     -2.19636619821049
  N   -0.30114707314878     -1.47403993754174     -1.41884515599712
  H   0.38313340077806     -4.24847200693604     -2.71512512669919
  H   0.65766834965472     -3.00439348155510     -3.95911144982837
  H   -0.99176762121239     -3.59241669116970     -3.62906716376628
  C   4.10093244172240      1.08066032335192      0.77155964290198
  O   3.02240274988991      0.74676030984340      0.76560401146862
  C   -3.68789672904682      2.74643547008542     -1.61358835287896
  C   -2.64442596180188      2.24954664398396     -0.84671726168599
  N   -1.69921452957745      1.48196294010198     -1.39292309366481
  C   -1.79123739262394      1.23329871389915     -2.70169061409057
  C   -2.83496847671129      1.74678638071813     -3.45378458697186
  N   -3.78732792199634      2.49708618195553     -2.91271979965879
  H   -4.45393777738249      3.36379861442657     -1.16359721129419
  H   -2.55297883016623      2.48351158031470      0.20523768821055
  H   -1.02058715860962      0.62433746472659     -3.15582325646673
  H   -2.89846814465691      1.54752480046937     -4.51533641944374
  C   0.35683920783526     -2.37201970585879      3.80048357883350
  P   0.30796006901246     -0.68556124772002      3.20806284874315
  O   0.32953319002842     -0.66465325171389      1.68380337728188
  C   -1.17482083403067      0.08443891409686      3.84593937623855
  C   1.70510643275322      0.18556182497150      3.90479730514026
  H   0.34045555905078     -2.39876191546494      4.88936534727095
  H   1.26681063041742     -2.85213280877751      3.44325140119144
  H   -0.50441272271093     -2.91520149690019      3.41428558550511
  H   -1.18893174618755      0.04791260887204      4.93479485901023
  H   -2.05032888498061     -0.43718166666510      3.46072522067177
  H   -1.19710382713731      1.12487214411707      3.52080726401409
  H   1.66099416128934      0.16350559278682      4.99337622674615
  H   1.68271938247117      1.22096768857442      3.56395022335306
  H   2.63059172411918     -0.28593160472519      3.57709616187514
  N   1.69970931330087      0.93864323605000     -1.95119030884435
  N   1.74804536310850      0.17771441581509     -2.88546529673840
  N   1.79657240371982     -0.52481440598776     -3.77517811737232
