4
Coordinates from ORCA-job orca E -1310.704690962346
  Tm  0.16955638544323      0.21842515329733     -0.37445579995248
  O   -0.84461791681830     -1.18931516512110     -1.49972979941457
  O   -0.83231878228166      1.94710285910755      0.15956775251658
  O   2.10387031365673     -0.15432284728378      0.27801784685046
