43
Coordinates from ORCA-job orca E -4258.544775948532
  Nd  -0.08918894422607      0.83576337749762     -0.46366881848165
  C   2.41163433833076     -0.99172474396820     -3.91279000332818
  C   1.63890737944449     -0.90503121542732     -2.64425046373438
  C   0.99003177586699     -2.12938657735713     -2.03132521509316
  C   -0.34724160550485     -1.69938804129036     -2.60435266507027
  O   -0.98918862898903     -0.80099044878452     -1.98782797741260
  C   -0.85800182878985     -2.31654160254735     -3.86131196231423
  O   1.48892181382264      0.19363165657448     -2.02231470500446
  H   2.24463640221010     -1.93054847930016     -4.43568949264381
  H   3.47842214933715     -0.91357045308212     -3.68656043756174
  H   2.15529168970867     -0.15720671546932     -4.56412797473324
  H   1.36369969627709     -3.08254029509059     -2.38840069749607
  H   -0.08252862907770     -2.85105183020828     -4.40499319665312
  H   -1.29144253925383     -1.55084303580392     -4.50303610240835
  H   -1.64901695040323     -3.02961276108006     -3.61385168692674
  C   -3.16382412327155      4.11426985702563     -2.20213697138967
  C   -2.05386564162140      3.47290239103028     -1.67163996998808
  N   -2.02400355094180      2.14191853553648     -1.55114276082754
  C   -3.10533211257712      1.46702967696187     -1.95757403712178
  C   -4.20539235519379      2.12796680262707     -2.47668286442851
  N   -4.23973110777218      3.44967757508794     -2.60287269892732
  H   -3.17764751202294      5.19154592061030     -2.30017201391853
  H   -1.18516276253807      4.02096465386150     -1.33454955187689
  H   -3.07896751011680      0.38950300419757     -1.87348207067542
  H   -5.07732620640285      1.57424186130302     -2.79895745406423
  C   0.97516230596128     -1.98627830578692     -0.57935146936389
  N   0.85984216452522     -1.58285658982576      0.49252348206974
  C   -3.49988968180913     -1.57415782505223      5.51324204029560
  C   -2.49031481493441     -0.63904704764124      5.70403396796965
  C   -1.82989878621297     -0.10867895526488      4.61151235906782
  C   -2.18723437611168     -0.51417747716914      3.32490211189199
  C   -3.21031910354169     -1.44263588794803      3.13565821187727
  C   -3.86054012403241     -1.97507614066798      4.23326005239690
  C   -1.51868349420131      0.01004347595819      2.13534681910071
  O   -1.92416848647910     -0.10072986084540      0.98576110743405
  O   -0.35441011903704      0.67205366979878      2.24877301350327
  H   -4.01184373469089     -1.98961719152928      6.37007076749739
  H   -2.22446994529877     -0.32095968860878      6.70159418817668
  H   -1.06908228040082      0.64392106101940      4.78165197557553
  H   -3.47527433424768     -1.74011142064706      2.13125166133053
  H   -4.64838050767612     -2.70119189103299      4.09415475464329
  H   0.03019159480398      0.67871292644171      3.13263009404222
  Br  0.97943048708918      3.23560803589731      0.32339665457127
