27
Coordinates from ORCA-job orca E -2428.594385449405
  Yb  -0.07791978653808      0.41279308036426      0.34185232975085
  C   7.06972605247311     -0.54841559847992      1.42696255271654
  C   6.00578437200243     -0.09969255041823      2.19840289916829
  C   4.73752161405206     -0.02840464064595      1.64868390473310
  C   4.53743409276091     -0.40720446250268      0.32458895679374
  C   5.60337537325350     -0.85744859376332     -0.44938246821332
  C   6.86979376584269     -0.92697183399914      0.10603016990148
  C   3.17341233878704     -0.32040737971885     -0.24078251382150
  O   2.21861356792913      0.08279654158286      0.43464892324924
  O   3.05345129047874     -0.69436315837174     -1.48189224506782
  H   8.06050820307103     -0.60347329365195      1.85756700580261
  H   6.16621034881837      0.19367794963370      3.22641109456909
  H   3.89541423950363      0.31710126645309      2.23137761468733
  H   5.43271850328762     -1.14787177497716     -1.47560641278950
  H   7.70143997403965     -1.27558419817461     -0.49016111826015
  H   2.10103752432280     -0.58783442289429     -1.78961668732149
  F   -1.21235905884500      2.69225701985629      3.69074789726557
  P   -1.36591790796279      1.20894534859334      3.05301742893926
  F   0.25294850849665      1.16485142496430      2.76396485165420
  F   -1.64728174622900      1.88886908863115      1.56073939842714
  C   -2.16783583165767     -1.50272544368764      2.42465525653672
  O   -1.29862241317038     -0.50661490781572      1.95019724929800
  H   -2.94945112260531     -1.72958387506524      1.69556865760450
  H   -2.65692953496205     -1.17361095215567      3.34918453756699
  H   -1.62169222279883     -2.42242307542669      2.64557123117750
  C   -0.64302876868503      0.06509521054379     -2.14451787804827
  N   0.46054862433436     -0.30975676887390     -2.07451263632024
