16
Coordinates from ORCA-job orca E -2196.709881432844
  Yb  -0.09301381493240      1.39502033627503     -0.54893341023652
  C   2.30325846024839      0.10587313469107      1.25200953722141
  C   0.94739194549718     -0.09355178517788      1.93949202478161
  O   0.80198095490980     -0.90997001391692      2.80799425833167
  O   0.00828154876306      0.70529071859942      1.47268156775577
  N   2.13497243544608      0.27399387899499     -0.22672286826761
  H   2.95579416290805     -0.72925455043904      1.49185388822023
  H   2.74919337433058      1.01744262414830      1.64994282135058
  H   2.09578933674255     -0.65567876383327     -0.63775626547763
  H   2.98687271720921      0.67570075167097     -0.60553820605123
  F   -3.68245251901439     -0.81831613480698      0.08948974317357
  P   -2.38424072888381     -0.42288662447189      0.85723111684748
  F   -1.37507386922106     -0.74231032606423     -0.40619090890723
  F   -2.43035590246600      1.15094695671067      0.41861991585226
  C   -0.48227387960620      3.91206342354917      0.42629335623042
  O   -0.66772422193114      4.86643637407050      0.97293342917517
