5
Coordinates from ORCA-job orca E -853.935008458112
  Pu  0.37690954969505     -0.72304190499127      0.20118216035322
  O   1.70853276061157      0.41379802066991      0.12198221247781
  O   0.41844120003555     -2.44945812139449      0.59906874790142
  O   -0.74604622162543     -1.20608288809930     -1.08192884700679
  O   -1.06334728871675     -0.68225510618485      1.23175572627434
