52
Coordinates from ORCA-job orca E -2535.407752176676
  Er  -0.46986293784388     -0.08849361595377      0.20545382419747
  N   -1.51401988019671     -1.12972110335726     -1.90661242281931
  C   -2.33275000276057     -2.32860618276395     -1.62823293740205
  C   -3.15154741755138     -2.08372331364114     -0.37691743875348
  N   -2.23175489791266     -1.79722174089336      0.73666971848186
  H   -2.10804488933706     -0.39786153084228     -2.28706225919791
  H   -0.83744197328296     -1.33333560659416     -2.63358802551486
  H   -1.65170134534784     -3.16695519602355     -1.46557755924707
  H   -2.98305933092762     -2.58967033662444     -2.46447684589165
  H   -3.80148021121128     -2.93674790424954     -0.17645606234007
  H   -3.78563971740984     -1.20744897294374     -0.51612965233624
  H   -1.84507286356109     -2.65502980915955      1.11615077408111
  H   -2.72578309358266     -1.36362061867340      1.51019672889658
  N   1.20681658307873     -1.87277779187292     -0.31090294046418
  C   1.28469953158105     -2.97148159084911      0.44528762287975
  C   2.14289357831512     -4.01979755980554      0.16493711563408
  C   2.96102631910997     -3.91686356774667     -0.94512181242297
  C   2.90274208065329     -2.77106221469472     -1.72175092268979
  C   2.01764885570675     -1.75960560276594     -1.37681718884740
  C   1.93811293048538     -0.47791946748793     -2.13744422551119
  C   2.72608728971623     -0.21877677636637     -3.25027754355813
  C   2.61945738160770      1.00899267078036     -3.88375301553666
  C   1.73438161604716      1.94955275412116     -3.38873036886237
  C   0.97778357772028      1.61721655276966     -2.27870085433298
  N   1.06936256991845      0.43171013727191     -1.67181203987311
  H   0.65468891358625     -2.98648296931943      1.32454837597282
  H   2.17012469459075     -4.88354072426154      0.81214120010304
  H   3.64890184339011     -4.71072769584085     -1.20080460724355
  H   3.55149197978296     -2.67237319932840     -2.57739228517089
  H   3.42009601257638     -0.95413484025317     -3.62495516557450
  H   3.22596880196944      1.22502385918309     -4.75222821921865
  H   1.62238283907961      2.92021129039609     -3.84808160957176
  H   0.26534997600490      2.31422119248177     -1.85890951411823
  C   0.71970899411781      4.32522358763182      1.76719701490626
  P   0.53048581520826      2.60707840918329      2.23589314392557
  O   0.53856254901172      1.73482385136768      0.98730475860852
  C   -1.00096400743063      2.46607578142000      3.14842657042271
  C   1.87194111482641      2.17849351707453      3.33574592940569
  H   1.65043366430077      4.44882303996634      1.21517661352063
  H   0.73472145797389      4.96826088863898      2.64619574676978
  H   -0.11412744700372      4.61192276424621      1.12686633161310
  H   -1.01464093521579      3.17263982562955      3.97794566980442
  H   -1.08954072920672      1.45176133737423      3.53566922182942
  H   -1.83777252497660      2.67028068886949      2.47992834478867
  H   1.87222849993844      2.82823801709008      4.21046334947935
  H   2.81892673348537      2.28394815295259      2.80785788497323
  H   1.74639616579382      1.14343258512624      3.65258726565333
  N   -1.87878793261574      1.68256145295969     -0.69688704175777
  O   -2.43397075393084      2.62547470414591     -1.18520510339864
  O   -2.42874228411048      1.09579525553992      0.31453426248211
  C   0.14603505068677     -1.13429908604338      3.46348217620104
  N   -0.08285224484779     -0.82868329786454      2.35786801702480
