5
Coordinates from ORCA-job orca E -1083.509605115229
  Es  -0.05955512441430     -0.66945396534153     -0.03008037818215
  O   1.60222199777599      0.51448994761706      0.16534892807829
  O   0.43914155551754     -2.50661551794352      1.04214958282884
  O   -0.59229128462127     -1.17772514271006     -1.90783750890793
  O   -0.69502714425796     -0.80773532162194      1.80247937618294
