17
Coordinates from ORCA-job orca E -2484.261300125705
  Tm  -0.62364783555080     -0.34767923844068     -0.05260209165084
  C   1.11418690724159      2.15208967272275     -0.93716456840441
  C   1.61892561018401      1.70769218513991      0.44595527560755
  O   2.56440794143483      2.28491997686120      0.94533556702912
  O   0.98095783455217      0.69428363526176      0.94329158611120
  N   -0.29634286856336      1.78718474044818     -1.14151862085153
  H   1.70651788397629      1.59982282897185     -1.66691209040792
  H   1.30724259305293      3.21698770302692     -1.06296860010854
  H   -0.51048446457024      1.63329519599389     -2.11880929336767
  H   -0.93307494410346      2.47918948106093     -0.76671930780516
  S   -2.24276081665648     -0.99002436667005      2.22893214603600
  C   -2.57600996019845      0.43996648843934      1.46823605442583
  N   -2.61783396036121      1.37811802089908      0.77094022939548
  O   -0.36465824248453     -2.51773831651814     -0.69271717607734
  S   -0.33770912546420     -1.89109124111240     -2.11317569369048
  O   0.77098316829635     -0.84155499422533     -1.92340974286864
  O   -1.59689972078543     -0.97976177185925     -2.03389367337267
