6
Coordinates from ORCA-job orca E -749.595553238881
  Cf  -0.20234289992778      0.01929668216218      0.40418321585699
  Li  1.52862743843416     -0.29000874586712      3.00906511177113
  Li  -1.26628417346472      0.11481986155758     -2.31575738751226
  H   -0.85398196088767     -1.15791327209757     -1.25451271840631
  H   1.70547644842061      0.00577680010294      1.30348842589963
  H   -0.91148485257460      1.30802867414198     -1.14645664760916
