6
Coordinates from ORCA-job orca E -13462.677394276921
  Am  0.16110068391812      0.27125508007768      0.15787599934985
  Br  0.04612705872407      0.14400417726570      2.77169254478057
  Br  -0.18047106028321     -0.35344201974179     -2.53786412166569
  Br  -1.22187199403089     -2.07280897167999     -0.47296283765554
  Br  2.73279744017691     -0.25975912867461      0.06590569439883
  Br  -1.53767212850499      2.27075086275301      0.01536272079199
