15
Coordinates from ORCA-job orca E -2230.064903810015
  Ho  -0.60574445241787     -0.49592266328705      0.00683859042405
  O   3.13072344828255      0.14640767063506      0.51831551760411
  S   2.18021157526000     -0.93829154386001      0.86619281647955
  O   1.43479059978289     -1.34058808827536     -0.45212353233086
  O   0.97168369703671     -0.27548936851267      1.61748946185332
  N   -1.68363690022832      1.53943476041270      0.47331438961775
  N   -2.25616063730520      2.56652876589255      0.53341829534537
  N   -2.81620414700625      3.57319835552497      0.60024088720682
  C   0.98266641510147      1.59299357940242     -0.93073634767348
  O   1.58471420848383      2.48919821998480     -1.25121256593115
  F   -1.34578675894616     -0.65355176352704     -1.93095308054337
  N   -2.23496809413569     -2.60940280774813      1.12210342041620
  O   -1.18239570233304     -2.85513913066629      0.47481980316619
  O   -2.51785858501047     -1.38835866232743      1.28992400233335
  O   -2.94383466656440     -3.49731732364853      1.56276834203210
