4
Coordinates from ORCA-job orca E -3604.575437235761
  Pu  0.17848674160707      0.05039293566586      1.07767248291659
  In  -0.80069617843601     -0.67072165882488     -1.91128794570821
  Se  -1.09113346134469      1.70709061426874     -0.43529528830843
  Cl  2.30983289817362     -0.26487189110973     -0.16768924889995
