5
Coordinates from ORCA-job orca E -1132.672768584781
  Th  0.15195665682858     -2.70855756416195     -0.75164195643562
  Al  1.60933444584006     -0.06573535372921      0.16843740871192
  N   0.65912600954151     -1.53727721075628      0.95660272909562
  S   -0.40385199168100     -0.02070940464358     -1.03266741722510
  Sr  -1.32207512052916     -0.31476046670898      1.73132923585318
