4
Coordinates from ORCA-job orca E -2387.191278511688
  Lr  0.01199869398143      0.01157722527680     -0.01733678529805
  Cl  -0.91160627291142     -1.31125556506414     -1.81625444380988
  Cl  -0.91937562566226      2.23145496988762      0.19491250373217
  Cl  2.41547320459225     -0.10988663010028      0.20207872537576
