5
Coordinates from ORCA-job orca E -1030.348228091449
  Lr  -0.62797390125326     -0.51099053010215      1.37904986218903
  Li  2.28309017990564     -0.06697448503642     -0.69553609940226
  Li  1.52279160044917     -2.96838662105645     -0.14777536350665
  Li  -0.15073910529412     -1.21340110959106     -1.65687549380423
  H   -2.33267877380743      0.11271274578607      2.19319709452411
