6
Coordinates from ORCA-job orca E -5516.120693927390
  Pa  0.48125384410862      0.86289241545241      0.17676323225760
  As  0.01992451932939     -0.01884621489545      3.16778614474280
  Sb  -0.45816316614960     -0.75421597382563     -3.01411831100811
  Se  -0.89565159183108     -1.63038392542668     -0.45095939339803
  F   2.17128825093129     -0.19343255440571     -0.00113771312971
  F   -1.31864185638861      1.73398625310106      0.12167604053545
