4
Coordinates from ORCA-job orca E -641.616606272690
  U   0.40122977934907      0.56559804352564     -0.01349816825784
  Be  -0.74783872381942     -1.07614972903477     -1.58709115529453
  O   -0.98253584322123      1.68543455945283      0.07814815730721
  O   1.92563478769158     -0.35299287394370      0.08584116624515
