5
Coordinates from ORCA-job orca E -1315.332389420392
  Pa  -0.60856078197826     -1.16090235981127      1.10285506333048
  In  2.13036763571351     -0.17641298538397     -0.49768687556426
  P   1.47052854183755     -2.64288861535975      0.55291703639738
  Te  -0.44234478128248     -0.62431625400221     -1.85419290304363
  O   -1.85550061429032     -0.04251978544280      1.76816767888002
