6
Coordinates from ORCA-job orca E -3731.460054991846
  Es  0.38237245185394      0.62818074971792      0.72350925453848
  H   0.04234520332650      0.92326840952996      2.67605300486585
  Sn  -0.99289683613018      0.19569755628732     -2.30026340377889
  As  -0.15490671834397     -1.87462475249194     -0.66752766907544
  S   1.89946002364309     -1.40836690488412      0.03482028526653
  F   -1.17636412434937      1.53584494184087     -0.46658147181652
