42
Coordinates from ORCA-job orca E -3277.184976655628
  Yb  -0.40495504268069      0.01232494456697     -0.16546475582664
  N   2.01274985147877     -0.63326331887338      0.27602601500859
  C   2.80432745820861     -1.08298463422285     -0.70154612327482
  C   4.16209058478306     -1.28877489767883     -0.54813335532823
  C   4.72744986694306     -1.00087445479882      0.68250356642047
  C   3.91839456314299     -0.53063540235958      1.70209460446495
  C   2.55840480536612     -0.36244983824401      1.47283355433228
  C   1.63962016182092      0.15222322037091      2.53049112139065
  C   2.01290920045348      0.21454122191975      3.86415573772279
  C   1.12213631317614      0.73708132434953      4.78967354093928
  C   -0.11183204457397      1.18582035884350      4.35838361919878
  C   -0.41659523388272      1.07628997248076      3.01157778721444
  N   0.43144666827722      0.56342330307124      2.11883346965011
  H   2.32456287270794     -1.28020623986759     -1.65213737877591
  H   4.75439801459424     -1.65315556440606     -1.37397938292915
  H   5.78784950797681     -1.13182415982424      0.84685212480821
  H   4.35047752136063     -0.27862142190850      2.65761950548775
  H   2.97583020399854     -0.14681934500412      4.18969197225181
  H   1.39558928761369      0.79233480227388      5.83407456185452
  H   -0.83123696582430      1.60994325844188      5.04254449375714
  H   -1.36693964747215      1.41682071020056      2.62137578302511
  C   -1.41959850915956      2.45356868604138     -0.15548457132283
  N   -2.19718483626778      1.64134776617268      0.16795773445048
  C   0.67714663953522      1.02396607437665     -5.23333753676883
  C   0.61522961025855      2.01704904007855     -4.27092692199209
  C   0.36096835701802      1.66013925427596     -2.95825560330918
  N   0.17960972565376      0.38892351297925     -2.57456703659136
  C   0.23757421674088     -0.56313501148000     -3.51564835586194
  C   0.48175864802929     -0.29415462515813     -4.84801318601617
  H   0.86808652431719      1.27131052657329     -6.26831951512897
  H   0.75128231754388      3.05769369355543     -4.52498424651330
  H   0.27504159475422      2.41377517217001     -2.18509408958934
  H   0.07391798607023     -1.58160812363080     -3.18486546161845
  H   0.51154238968312     -1.10133742903735     -5.56482995372662
  F   -3.09737878911803     -0.60245895700185      1.83332885105452
  P   -3.89791703881681     -0.64644473198191      0.47114969048194
  F   -2.59594895803044     -1.12283703906772     -0.41563455861370
  F   -4.45474760773404     -2.10683545882399      0.64034782556660
  F   -1.66084069347302     -4.03760797357842      0.20619904891493
  P   -0.20122327068834     -3.53887011460828      0.40777795095448
  F   -0.11736868293747     -2.62422595100572     -0.91490558609092
  F   -0.53042757084766     -2.29545215017993      1.35413506032864
