6
Coordinates from ORCA-job orca E -519.688678638115
  Pr  -0.48626931133292      0.18610300894644      0.42794257786388
  H   0.25018536771922      0.28534695809032      2.32349001623509
  H   1.39970329642893     -0.09409729469976     -1.70119008607826
  H   -1.06642795482484     -1.72910129826065     -0.00138371145894
  H   1.86044526403530     -0.21711677487501     -1.12944590455660
  H   -1.95762666202570      1.56886540079866      0.08059710799486
