4
Coordinates from ORCA-job orca E -899.675034474691
  Md  -0.17639338892620      0.38044813717402      0.65071195562000
  Li  0.12784648741503     -1.57279734148432     -1.64707697291766
  H   -0.48323839873632      2.40408996012053      0.52973529682393
  H   1.12827530024749     -0.38985075581022     -0.96997027952628
