4
Coordinates from ORCA-job orca E -1055.652375938216
  Md  0.17056154076725      0.23040278814893     -0.10530562745736
  Be  -1.12720991084801     -1.61143322679207     -2.03090130265430
  O   -0.58848768590203      2.05801576096236      0.34436122707566
  O   2.14162605598279      0.14490467768078      0.35524570303601
