5
Coordinates from ORCA-job orca E -4264.174451073706
  Cm  1.40066085392691     -0.72911540330889      0.67709868244990
  N   1.87070667744305      0.78993204989620      1.32554165799187
  S   0.82620233348308     -2.76726414500975     -0.18108117718454
  K   -2.35594741994000     -2.26613938618772     -1.00203848674686
  Br  -1.04713244491304      0.32554688461017      0.25253932348963
