4
Coordinates from ORCA-job orca E -1135.533961204222
  Fm  -0.03440232061201     -0.05669497645654      0.10200599721780
  F   -0.66049274127609     -0.94795708810230     -1.56749846463798
  F   -0.66549048948089      1.83250947071447      0.01000569885623
  F   1.95687555136899     -0.00596740615563      0.01888676856394
