4
Coordinates from ORCA-job orca E -699.576679984517
  Am  0.53673630210855     -0.43641069049034      0.79887156771610
  Be  -0.99639009852785     -0.33727560626714     -1.62636083808813
  Be  -0.98786753043252      1.59691937121636     -0.52884958535386
  O   2.04401132685182     -0.00134307445887     -0.08026114427411
