5
Coordinates from ORCA-job orca E -1347.417991430939
  Pa  -0.71262266375962      0.53509592104444      0.49438339881992
  Be  1.62527698714931     -0.13171585446302     -0.45544804240811
  Ca  0.61097629373121     -2.69408817880997      1.10899675677312
  Sn  -0.18795891266102     -1.23281780734118     -1.84686239520905
  H   -0.64118170445989     -1.12351408043027      1.77099028202412
