4
Coordinates from ORCA-job orca E -1111.796400006416
  Lr  0.67957805191732      0.14058687452120      1.05700119230306
  Be  -0.02522928535678     -0.05536883359786     -1.39463279676622
  Be  -0.90978703208969      1.67660476654904     -0.48043656661201
  O   0.85192826552916     -0.93993280747238     -0.61853182892482
