4
Coordinates from ORCA-job orca E -679.115361066195
  Np  0.47117376124351      0.66944368456315      0.08952342828449
  Be  -0.85384805877230     -1.23899681466945     -1.75274935177550
  O   -0.94165558925143      1.69923819125305      0.11150871255479
  O   1.92081988678021     -0.30779506114675      0.11511721093623
