5
Coordinates from ORCA-job orca E -3573.476068905980
  Th  -1.78086103816221     -0.57345461574284      0.33861466699111
  K   3.14063106386350      2.09342101977118     -1.93951025372469
  Sr  -0.01198609150340     -3.55505598081689      0.69797432001844
  Ge  0.91411856492673     -0.60268777875707     -0.56486963227613
  Cl  -1.56741249912462     -2.00926264445436      2.53985089899126
