34
Coordinates from ORCA-job orca E -924.988135600453
  La  0.34376214899729      0.04442946128594     -0.14479915319457
  C   -0.77007196148790      3.32366158653279      6.00525030008692
  C   -1.23763285207186      2.02545397435937      5.84360061379859
  C   -1.03645960322122      1.36535461824674      4.64397587128119
  C   -0.36618902975809      2.00917210439118      3.60679740331527
  C   0.10191675550166      3.31038197652709      3.76878017987512
  C   -0.10162413532204      3.96597758685137      4.97104490829488
  C   -0.15215841173793      1.30467769239059      2.32664189416236
  O   -0.56928612740448      0.11686764939766      2.16262782357382
  O   0.46116468648430      1.89955846437389      1.36767294257518
  H   -0.92830611066669      3.83814063117346      6.94326252029821
  H   -1.75805149937964      1.53252287717730      6.65271066788099
  H   -1.39208609559424      0.35550638156203      4.49638063664103
  H   0.61929510756017      3.79244624032167      2.95177923011368
  H   0.25876946862365      4.97628442452200      5.10408344980317
  C   0.78809941616361     -1.58849328393035     -3.29026052555998
  C   0.98997339918679     -0.21136782417152     -2.69661014373881
  O   -0.03606191997201      0.51567996159183     -2.55688240924114
  O   2.01783292531613     -0.03346027969300     -1.98590238850737
  N   0.33744826239758     -2.31384912714221     -2.06086385794822
  H   1.70497911115538     -2.00404650516861     -3.69693871308017
  H   0.00354317182545     -1.58624480401848     -4.03951732847782
  H   1.06572172094727     -2.94487643599447     -1.75133373014519
  H   -0.47140606709969     -2.88550726123307     -2.26600476618568
  C   3.74344611464099     -2.92000116644231      2.51691050567808
  C   2.76842937323580     -2.23376923151314      1.68819754987468
  N   1.99942183832612     -1.68914445456990      1.03640847510930
  H   4.73938574491330     -2.76476313987325      2.10767730905342
  H   3.51932644290607     -3.98429883537736      2.53614848391649
  H   3.69912952188914     -2.52200016955547      3.52847379493450
  N   -2.23112995802791      0.64738063013413     -0.55640443519102
  H   -2.41922703989552      1.57043761712500     -0.17477759514342
  H   -2.94628545641068      0.04084810462408     -0.16911623176523
  H   -2.39026894202089      0.71044053609499     -1.55781328208848
