4
Coordinates from ORCA-job orca E -779.015282086278
  Pu  0.35723126880051     -0.17623396237039     -0.47217482886818
  O   -1.02574354138205     -0.75471282127349     -1.35646011275076
  O   -0.54140801819080      1.47469786498960      0.01423079181992
  O   1.80641029077234      0.27813891865428      0.37780414979902
