39
Coordinates from ORCA-job orca E -986.296335734183
  La  0.15424435895555      0.11531836562374      0.03569476994890
  C   3.95576408687494     -1.08047798970967      2.46900130392169
  C   2.95959526850720     -1.23802293624951      1.36454064243848
  C   3.10017931987118     -2.26970191932392      0.43570319695964
  C   2.22683815416165     -2.53034117350534     -0.62797009067038
  O   1.17365242382269     -1.85043452018304     -0.87649763170370
  C   2.50807450361557     -3.67606789896630     -1.55107457141396
  O   2.00710319024311     -0.37783698251410      1.34362900006652
  H   4.73328309380555     -1.83712675344790      2.43861984781049
  H   3.43412580144021     -1.12909615538134      3.42501185657807
  H   4.40583243366684     -0.08995532689596      2.40008577348670
  H   3.95136732258568     -2.92180174291093      0.54827181804474
  H   3.43280593282418     -4.19053990206280     -1.30970799319174
  H   2.55191968328651     -3.30340691485854     -2.57426280532819
  H   1.67946028855692     -4.38362266102248     -1.50141619284117
  C   -2.76611472007790      3.53178073550449      1.53786780562340
  C   -1.76244185229448      2.89577516753633      0.62525221452787
  C   -1.27452991087270      3.61365969048571     -0.47395971583791
  C   -0.33305658010486      3.14690772487683     -1.39181642903066
  O   0.21821013963283      1.98924135450234     -1.33098019955942
  C   0.09662614673644      4.01276653456065     -2.53316814679027
  O   -1.40747120194512      1.70372755515086      0.91878477306841
  H   -3.03659309248566      4.53607772613443      1.22739249465173
  H   -2.35400482925795      3.56143588591900      2.54677370269387
  H   -3.66168684937120      2.91056076168999      1.57568287713034
  H   -1.65762460689126      4.61027255274196     -0.62411372837961
  H   -0.40819517390647      4.97352753960168     -2.53981310424326
  H   -0.10040280259627      3.48849103576420     -3.46837883131585
  H   1.17432599538768      4.16604050717663     -2.47325069126256
  C   -3.11610613599434     -3.48020205474175     -0.48851357614031
  C   -1.98193775018671     -2.68325940342517     -0.48849193461762
  N   -2.00623634116169     -1.45456031081154      0.03825047035621
  C   -3.16341374471640     -1.03438333017728      0.56078604752967
  C   -4.28578001104862     -1.84748523114216      0.55254860317701
  N   -4.26610981975731     -3.06746211434091      0.02996010038388
  H   -3.09121584888899     -4.47300777794479     -0.91778510456463
  H   -1.04569143390563     -3.02143404098864     -0.91275043600211
  H   -3.17800110523940     -0.03834999844294      0.98329678350018
  H   -5.21899433327177     -1.50280599822175      0.97779710099546
