25
Coordinates from ORCA-job orca E -2099.775757675126
  Tm  -0.23096590517308     -0.38482261455886      1.23628290166106
  C   1.67566083205598     -4.19384613379401     -0.19407642003900
  C   1.55674482166140     -2.71930652212869      0.01708667553339
  C   2.60938883430848     -1.87341668098123     -0.33155797508184
  C   2.58639510767186     -0.48477370856508     -0.19265958048726
  O   1.57878885951487      0.15483800529237      0.27927669058393
  C   3.75928630208330      0.34448043173862     -0.59680788535238
  O   0.44639255532725     -2.31488029326963      0.52570994075804
  H   2.63094743739318     -4.47557755221527     -0.62505912676428
  H   0.86969822322073     -4.52531991409417     -0.84954956702158
  H   1.54522932301075     -4.69951512109538      0.76312412058023
  H   3.49874365690838     -2.32270909902651     -0.74291705307762
  H   4.56907429914800     -0.25255282800349     -1.00350785102966
  H   4.11290863364739      0.89721624140365      0.27418326091262
  H   3.43706782064196      1.08010464214423     -1.33402805524694
  C   -2.82501226972994      3.19609711032787     -1.04011242896159
  C   -2.10123242378738      2.10260704211746     -0.42163081760579
  N   -1.53161757493628      1.23884208725222      0.06906521368577
  H   -2.14236334884717      4.02583646250707     -1.21286808602850
  H   -3.62747743549951      3.51574866876141     -0.37817651916950
  H   -3.24247281163498      2.86230545627788     -1.98799642340452
  Cl  -0.19562045069011      0.13645673253716      3.59801756252782
  O   -2.08058356609095     -1.80597383638385      1.24644635756484
  H   -1.83169403134438     -2.71179833490773      1.02307620329742
  H   -2.80528688885981     -1.84154024133600      1.87877886216535
