5
Coordinates from ORCA-job orca E -516.501747259480
  Np  0.13161904816411     -0.93552821779964      0.21510667584317
  H   1.62638231159708      0.34465423480930      0.12786564564958
  H   0.84082489045908     -2.71576415658934      0.71557283998101
  H   -0.73965734836376     -1.02950046260377     -1.56102401413488
  H   -1.16467890185651     -0.31090139781655      1.57453885266113
