15
Coordinates from ORCA-job orca E -1770.596992312891
  Er  -0.18798225606019      0.21337513460808     -0.85047147284299
  C   1.63703729893882      0.17426978147988      1.30171736255849
  O   2.41212723431489      0.16016783742690      2.10877766511263
  N   -1.89338034837739      1.08045875875109      0.69489012235983
  H   -1.64955742057235      1.98009414001567      1.09538028541383
  H   -2.15460161813464      0.45695507496450      1.45056627791126
  H   -2.72076260692371      1.22350646727343      0.12321211152485
  N   0.11053907145608     -2.42258759366154     -0.08560640299298
  O   -0.74949537378481     -1.63437856699812      0.45252973008208
  O   0.83632736683961     -1.87372758045530     -0.98389119059793
  O   0.22469734900627     -3.56194658082469      0.23482325483043
  N   1.59392543961701      2.36508199059169     -1.11930089989750
  O   0.53517602960407      2.41400101420370     -0.43430717904346
  O   1.78407741408887      1.23457523883135     -1.62739371023414
  F   -1.56262758001253      0.36525488379337     -2.27872595418438
