6
Coordinates from ORCA-job orca E -2573.788604551354
  Tm  -0.12798694132805     -0.21733465420894     -0.01215523949310
  I   0.68873684391352      0.39648574998833      2.75249674222488
  I   0.04349896696388      0.94951586013042     -2.71176428273288
  I   -1.43864486410518     -2.65073462007519     -0.08238895243776
  I   2.75783699729120     -0.55823669843968      0.46565479728338
  I   -1.92343100273539      2.08030436260504     -0.41183306484454
