4
Coordinates from ORCA-job orca E -3709.676153848594
  Sm  0.63167429291116      0.82158837898242      1.29780413942107
  In  -0.50729815124793     -0.39694681778942     -2.14639712998777
  Se  -1.58011557667736      1.12343769776436     -0.30040673906407
  Cl  2.05222943501412     -0.72618925895737     -0.28760027036922
