4
Coordinates from ORCA-job orca E -3932.347507204462
  Lr  -0.27208991307124     -0.63901094583141      0.53029254214464
  N   -0.57429667787575     -0.75841463328878     -1.71393631419124
  I   -0.64351916788324      2.10507943206535     -0.14731987909774
  Br  2.08639575883023      0.11423614705484     -0.10563634885565
