5
Coordinates from ORCA-job orca E -1705.084257671607
  Pu  -0.07343035406553     -2.04121832400722     -0.96168890705599
  Be  0.47524053262773      0.05421137781363      0.62241885771155
  P   0.68767184958374     -1.85001123408574      1.58330739678304
  S   0.90332467453783      0.22709013591244     -1.28455271949045
  S   -1.29831670268377     -1.03711195563312      1.11257537205185
