4
Coordinates from ORCA-job orca E -734.610265524921
  Cf  -0.01966328217740     -0.00658647132075      0.00966837702186
  H   -0.67068378476801     -1.02640488774040     -1.57206758985480
  H   -0.66721839025144      1.87135004477646      0.07608161510244
  H   1.95405545719686     -0.01646868571531      0.04971759773050
