11
Coordinates from ORCA-job orca E -1940.953564370658
  Tm  -0.23307418247280      0.55439333284168      0.23940046353149
  C   0.21559043498273      0.37032962045686      2.79533562636455
  O   0.41142437356291      0.33868166778852      3.89450849528311
  N   1.68907968272177     -0.15166821225912     -0.18053381710009
  N   2.80999052838431     -0.51837816822706     -0.43935714076335
  N   3.85407464537422     -0.86229462866799     -0.67773521306480
  N   -2.28315811158094     -1.13603811796228     -0.17651301256639
  O   -3.18465072325844     -1.87526546962847     -0.36968269544199
  O   -1.74613782252724     -0.42551801763598     -1.10647601199683
  O   -1.74612975482871     -0.96741604080203      0.98138843587393
  I   -0.66350907035781      3.28537403409590      0.77116486988030
