4
Coordinates from ORCA-job orca E -1582.169999430247
  Th  -0.47271496682176      0.49008018157261      0.64986544099528
  Ca  0.09378483699021     -1.88781589680062     -1.85254667522736
  F   -0.62518745714727      2.49909015395301      0.30811969705714
  S   1.60060758697882     -0.27946443872500     -0.54203846282506
