8
Coordinates from ORCA-job orca E -4633.408972792976
  Eu  0.16794086529428     -0.12370914295794      0.69301627129491
  S   2.75222439257974     -0.95800058314881     -0.27887326871235
  C   3.92225066840193      0.23472942998179     -0.46386674986753
  N   4.78705840098977      0.99114008022700     -0.62628735084154
  I   -2.38293532502205      0.39512808832801     -1.02628539042420
  Br  -0.38935502470491     -0.38404443704765      3.45721716497103
  Cl  0.87585161521340      2.42073822266529      0.75271264167511
  F   0.04356440724780     -2.15388165804771      0.27966668190457
