30
Coordinates from ORCA-job orca E -1854.636687365269
  Ce  -0.22778704875342     -0.72112227057777      0.00261750827661
  C   -0.03363498300452     -0.73295248865537      4.59291186587041
  C   0.53121439481487     -0.93986902142451      3.22169544908504
  C   1.84261424420381     -1.37983994018285      3.05492363690186
  C   2.43381599963392     -1.58635477700525      1.80405081511108
  O   1.83318260066863     -1.39421867066315      0.69984159646226
  C   3.85160117793795     -2.06001586791075      1.70603130115472
  O   -0.26125602087635     -0.68461515754996      2.25269050037114
  H   0.67933334305118     -0.97534802267486      5.37532831223944
  H   -0.92581734110012     -1.34914488142540      4.70240566895469
  H   -0.34556953634673      0.30701988805420      4.68917662806894
  H   2.43426927743481     -1.56824150193394      3.93614383156647
  H   4.30946790270981     -2.20140765090512      2.68048361646569
  H   4.42468607365828     -1.33264833724496      1.13141118511596
  H   3.86971437869920     -2.99799862733868      1.15116892321175
  C   0.18560933125760      2.32670188637897     -1.07223259546003
  O   0.39971614304530      1.31409607729287     -0.28504600262428
  O   -1.06060581601438      2.47949670181658     -1.47666844541681
  S   -2.60871351415508      1.61655953845723     -1.11527565127635
  O   -3.01114330375603      1.28211897479795     -2.46532965556331
  O   -2.14509360282470      0.34285279777625     -0.39780638036892
  C   -0.64339315716815      0.99320096538301     -4.51816269459974
  C   -0.26061271309631      0.11638998811097     -3.42985402504262
  N   0.03861548298751     -0.55840900723799     -2.55224369627044
  H   -1.69140967057653      1.25247332009334     -4.37458445313700
  H   -0.49279701796518      0.49100900882457     -5.47080516624142
  H   -0.03845663138372      1.89636421888334     -4.46520728671795
  N   -0.95720346029556     -2.77918358631099     -0.29243290862913
  N   -1.27852881115750     -3.92332937645633     -0.50519043289710
  N   -1.58211772162858     -4.99048418037123     -0.70264144461104
