5
Coordinates from ORCA-job orca E -2280.975566520240
  Pa  0.13898707719173     -0.92795892119445      0.21444388463052
  Cl  2.03750422418866      0.69438586688625      0.10125801091325
  Cl  1.00863040073939     -3.18419528106695      0.84720559344896
  Cl  -0.97675049673262     -1.06422141942947     -2.01829808931697
  Cl  -1.51388120538716     -0.16505024519537      1.92745060032423
