5
Coordinates from ORCA-job orca E -430.420081395327
  Th  -0.81552551583234      0.02627978934937      0.78867991087008
  Li  2.37869213099205     -0.18600195088881     -0.45487650605585
  Li  0.85171285782148     -2.37461003556639      0.36988033428920
  Li  -0.01379046821561     -1.55708228771908     -2.15283366470875
  H   -1.70659900476558     -0.55562551517508      2.52120992560530
