6
Coordinates from ORCA-job orca E -13344.256802707980
  U   0.10114377279284      0.16626558243487     -0.00221066921855
  Br  0.29038829952909      0.48609229756216      2.58091839384907
  Br  0.27187806846008      0.45435903493551     -2.59070114813434
  Br  -1.22338112420795     -2.04823820275231      0.02206705400741
  Br  2.50882355722404     -0.84028664960572     -0.00525366713898
  Br  -1.94884257379809      1.78180793742549     -0.00480996336461
