51
Coordinates from ORCA-job orca E -2475.391404192091
  Tm  -0.47651087514505     -0.38996103825659      0.05086178064718
  C   3.97785322393179     -1.13662341515328      0.45198237674841
  C   2.62988605756145     -0.64598963934764      0.90374204123931
  C   2.40228176853074     -0.42757143285723      2.26747863904944
  C   1.20863331317326      0.07982854379349      2.78358428012029
  O   0.18683415308203      0.37024461935964      2.08489760317131
  C   1.08446640916578      0.32942396226551      4.26029274428749
  O   1.77424860791825     -0.45613659728249     -0.01207294607312
  H   4.69844029795798     -1.18994920785617      1.26343568249465
  H   4.35249105223849     -0.47840994830164     -0.33168875279630
  H   3.85510888155265     -2.12940149187742      0.01647131778336
  H   3.20747587401614     -0.63184297836348      2.95558851883698
  H   2.00538002235594      0.12309926082953      4.79867634971833
  H   0.28560362955128     -0.30291552017065      4.64873304981380
  H   0.78594241027001      1.36486581408453      4.42530639456373
  C   -0.23266340273518      1.10095667714243     -4.45522290958667
  C   -0.55480334749105      0.92928479896223     -3.11858420526928
  N   0.13049624418391      0.08888807102372     -2.34586283510185
  C   1.12273556624589     -0.58854719343806     -2.92019195641679
  C   1.42548953726480     -0.41456958127292     -4.26204358396930
  N   0.75716831572354      0.43244358801540     -5.03580662140194
  H   -0.79383709189291      1.79255366406520     -5.07038411737921
  H   -1.38324110020705      1.45205703398791     -2.66353758154820
  H   1.67479731839624     -1.27324189621467     -2.29361885286600
  H   2.22964645318055     -0.97687377792497     -4.71870626501415
  C   -2.61642208671941      2.94120038951909      1.35048134562242
  C   -1.76930134572933      2.92384524342424      0.09668176905856
  O   -0.66221979245874      2.01145259143159      0.22210605532000
  H   -3.47071280759200      3.60447712682418      1.21513037414920
  H   -2.04166204613703      3.30488332872370      2.20456108296791
  H   -2.98396055145708      1.94332722838401      1.58660425239829
  H   -1.37410248119482      3.91534600374501     -0.13134789296630
  H   -2.34481816452119      2.57239995471134     -0.75600261631326
  H   -0.27519959214868      2.09405261822661      1.10467000745891
  N   -0.15063741860506     -3.18418476244774      0.05612548998018
  O   -0.43044185574782     -2.49623414363301     -0.96745999186484
  O   -0.07243146719481     -2.49126433499275      1.09074587881647
  C   -7.42376413555759     -0.11420245768531     -0.13403635533201
  C   -6.76716464043977     -0.52192418306290      1.01982378326031
  C   -5.38263733653512     -0.57532097818602      1.04591877504169
  C   -4.65583960284496     -0.21774059567000     -0.08420791763704
  C   -5.31355816927140      0.18845605240150     -1.23989679506754
  C   -6.69807038838421      0.23948158461230     -1.26415386366803
  C   -3.16694582535846     -0.26100087040700     -0.04833396747797
  O   -2.57396380019167     -0.64473359782712      0.99995767977356
  O   -2.49952261684643      0.11174100268400     -1.06053862062791
  H   -8.50487376398588     -0.07499362565695     -0.15369231954458
  H   -7.33547128192560     -0.80040091892812      1.89689708531588
  H   -4.84809610102949     -0.89404309863901      1.92989389323678
  H   -4.72773021054202      0.45247046181468     -2.10933870157632
  H   -7.21277583641054      0.55129766542126     -2.16301858137588
