6
Coordinates from ORCA-job orca E -13431.632206913058
  Nd  0.29253144607887     -0.03222643459008     -0.02467903174939
  Br  -0.62343569528917     -0.27476003778826      2.68696887862454
  Br  -0.88979103716185      0.37678102260917     -2.60868092144069
  Br  -1.00122118937677     -2.44643437867057      0.83342116602298
  Br  2.96344777054137     -0.17598886578257     -0.16505745693163
  Br  -0.74152129479244      2.55262869422231     -0.72196263452581
