42
Coordinates from ORCA-job orca E -2813.663676741638
  Lu  -0.09345479824903     -0.30980561921228     -0.49580652271860
  N   0.95300470432916      1.40620874827162      0.84033641865651
  C   -0.13820531420155      2.38311930565472      1.04357100566717
  C   -0.52455940994347      2.97785691021963     -0.30070003971526
  N   -0.73879310049030      1.91690734456724     -1.31985063011545
  C   -2.09457996149255      1.87731236383551     -1.92012308329909
  C   -2.97605442904546      0.87581688926563     -1.19962134842098
  N   -2.36775157007752     -0.46553597647974     -1.32887959399626
  H   1.21957170293901      0.96531203854861      1.71744644824506
  H   1.79181499755268      1.86972087932994      0.50401799533545
  H   0.13762995562532      3.17760819059810      1.73803529902321
  H   -0.97989586322219      1.84050042258137      1.47874090148869
  H   0.26526743911091      3.64597613955523     -0.64816888501008
  H   -1.42486162216630      3.58175297286057     -0.18968889144420
  H   -0.07852835538971      2.05986816373058     -2.07435488477088
  H   -1.98805625072407      1.57428289459064     -2.96285084759979
  H   -2.55429746761071      2.86673470980599     -1.91557544414014
  H   -3.98922502293528      0.91096364213368     -1.60194215087746
  H   -3.03591647964418      1.11045562588965     -0.13494190651388
  H   -2.44640723720151     -0.79321309258111     -2.28636971301030
  H   -2.86382553380228     -1.12674731524587     -0.74020083797689
  S   -2.02496371161552     -1.81080210103481      3.80955770632784
  C   -1.57057131824837     -1.27385875495350      2.38739045771427
  N   -1.22599748647709     -0.87491743782297      1.32108906075302
  C   3.54295348873254     -1.21271512337058      2.99398818750123
  O   2.65099859960999     -0.79751072196453      1.92977607543192
  P   1.85410375449331     -1.87742345933100      1.05243134483059
  O   1.30647344126904     -2.83220278986450      2.19951931010378
  C   0.49373112662849     -3.96968498088179      1.86707680023443
  O   2.96445753309219     -2.83698920372058      0.40392346869132
  C   3.67406168641461     -2.39278940782552     -0.76418920479866
  H   4.15472880483606     -0.35081381081552      3.23830469289202
  H   4.17226540846680     -2.03348150883922      2.65729845414530
  H   2.95845621801573     -1.52218510637459      3.85534021479891
  H   0.03193844572131     -4.29977893706273      2.79069501331269
  H   1.11426805944019     -4.75771510193980      1.44635603038402
  H   -0.28936667434182     -3.68783892496204      1.16057768488456
  H   4.01201369676966     -3.28119325817113     -1.28770035411073
  H   4.53427502565882     -1.79516853707850     -0.46734808502875
  H   3.02224162490205     -1.80757116944211     -1.41474342266747
  O   0.72975370093779     -0.82230012116483     -2.23941314044865
  H   1.06210219233318     -1.23505478129944     -3.03090358375859
