6
Coordinates from ORCA-job orca E -2042.201129584061
  Pu  -0.08980984876940     -0.18571817108864     -0.00944387943878
  I   0.76633534545737      0.48493257633768      2.80139082205038
  I   -0.02901851647241      0.93477388702503     -2.81488831844826
  I   -1.50647483079329     -2.66988871329748     -0.03606488144881
  I   2.83841455833266     -0.70024234961330      0.49100940756308
  I   -1.97943670775492      2.13614277063670     -0.43199315027762
