4
Coordinates from ORCA-job orca E -1105.365527447891
  Am  1.68967481566810     -0.63157167764535     -1.03184117765614
  Na  -3.76165046789021      0.34931571517244     -1.38479966340068
  P   -0.89871566486288     -0.07353369682545     -1.07359755158277
  Li  3.56718131708499      1.17767965929837      2.05363839263960
