7
Coordinates from ORCA-job orca E -2622.478117383524
  Fm  -0.00106855334645      0.02728702988480     -0.01961117994917
  I   0.36743194603125      0.60610120275755      2.87342144452587
  I   0.61491972533627      0.31190301921296     -2.90713104422246
  I   -0.61091582351053     -2.84682914627850      0.39565093946796
  I   -0.37212544456541      2.89882412283986      0.68433510208268
  I   -2.88419291337297     -0.63627473475284     -0.39154101663392
  I   2.88596106342784     -0.36102149366383     -0.63513424527095
