5
Coordinates from ORCA-job orca E -817.621920737455
  Pr  0.14846442949913     -0.92231294259750      0.20988727097955
  O   1.57665590070360      0.30360871188660      0.13233870752518
  O   0.79783562549584     -2.64580553557747      0.69818656633642
  O   -0.71405850737306     -1.03200732314834     -1.47912518957385
  O   -1.11440744832552     -0.35052291056329      1.51077264473269
