4
Coordinates from ORCA-job orca E -1601.238416518789
  Th  0.15117830344465      0.20927425243916     -0.36087019645518
  S   -1.00684267142207     -1.44762096620681     -1.76290885451651
  S   -1.01769419648451      2.25467291563489      0.34006081136554
  S   2.46984856446193     -0.19443620186724      0.34711823960615
