33
Coordinates from ORCA-job orca E -2177.227949846776
  Er  -0.14004298252696     -0.35728309460352      0.14736513387877
  N   -0.04766859961828      2.37705165821843     -0.14323513684974
  O   -0.05266993061183      3.54439216568051     -0.33603435812411
  O   1.02599043585471      1.69648594265039      0.03335855440633
  O   -1.13134697865969      1.67463773618415     -0.10431413580952
  N   2.18002444708123     -1.16402189010352      0.01210113885705
  H   2.35931033066299     -1.87691103765758     -0.68975152546917
  H   2.52001681384709     -1.55073439262043      0.88893999271765
  H   2.79255738084778     -0.38246267404513     -0.20940121728017
  C   -0.45688600254383     -0.84353677535704      4.75028678867155
  C   -0.52558822461031     -0.97063370028857      3.37069728330454
  N   0.12487014676719     -0.11518814051788      2.57211456003554
  C   0.82996522687424      0.85992489104579      3.15970544487294
  C   0.88417687052426      0.96672582727750      4.53919695158486
  N   0.24533309867884      0.11746986451918      5.33602703894305
  H   -0.98500569727587     -1.53723076173666      5.39087055728110
  H   -1.10226509338174     -1.75044135286081      2.89137727226910
  H   1.34867494337257      1.55887457809714      2.51675571421026
  H   1.45535098649839      1.75710252014417      5.00772536768440
  C   0.04575063172879     -1.53791981352344     -3.88439871774332
  P   -0.53091689358618     -0.24222883738842     -2.74416273418373
  C   0.07385488745158      1.30209005134424     -3.49479954526334
  C   -2.32640151437409     -0.17699082852166     -3.03123803119478
  H   -0.29849637455631     -1.33303200536552     -4.89805456831319
  H   -0.33858606170575     -2.50779754963779     -3.57155457176713
  H   1.13440156135432     -1.58027608631333     -3.88943248668736
  H   -0.21542861359496      1.35383215628811     -4.54452314728143
  H   1.15888740534533      1.36332151207951     -3.42335851546874
  H   -0.35513378899727      2.15911614138344     -2.97596026525518
  H   -2.54127107636376     -0.03248679789649     -4.09009177284811
  H   -2.75513218300429      0.65090096989590     -2.46690124563135
  H   -2.79225363791486     -1.10276223729789     -2.69577764616334
  F   -1.28807151356328     -1.92798803907276      0.59246782261667
