38
Coordinates from ORCA-job orca E -4163.810348141067
  Gd  -0.60735644296876      0.04692000704012      0.08413716686137
  N   0.31025006460436      1.89809423545244      1.68272922335078
  C   1.47133825916667      1.54826341225335      2.49428474260072
  C   1.32528872134976      0.11949284156295      3.01193549983469
  N   1.03732681639783     -0.84453224585499      1.94557896225088
  C   2.19049270702623     -1.50281379611110      1.33066937991356
  C   2.87004087478900     -0.63416825016923      0.28020585609535
  N   1.89211492425182     -0.19528085158395     -0.72440705177803
  H   0.44575110804089      2.71997517829942      1.10765497425064
  H   -0.51257952909006      2.04944431684468      2.25719401308832
  H   1.61127858937413      2.21299100686921      3.35256079542787
  H   2.35896356928887      1.64824828961317      1.87157562651264
  H   0.48262636637385      0.09428290807590      3.70363576859314
  H   2.22492011857852     -0.16107166902526      3.57230776831739
  H   0.40509051442753     -1.55149179221726      2.30027658298180
  H   1.81516103108339     -2.40245131019100      0.84375728245449
  H   2.93495101120901     -1.79823443391921      2.07994513507515
  H   3.68950849061733     -1.20959665465137     -0.16082782734868
  H   3.31618919763173      0.24919148752598      0.73450278337270
  H   1.58335625036343     -1.00038109159105     -1.26295313427512
  H   2.29420942975269      0.48691281798852     -1.35424583899392
  C   -1.54387162843846      1.23370626580681     -2.93700408648889
  C   -1.13963650725484      2.43457166772335     -2.06900928995304
  O   -1.19940450620074      3.55336841357350     -2.53732695980409
  O   -0.78514248029702      2.13308610030949     -0.85945746400243
  N   -0.81830920916691      0.01781311545455     -2.54685837958589
  H   -1.40833813426685      1.50568623377289     -3.98309406918687
  H   -2.60689815580625      1.06552851257841     -2.76407165107663
  H   0.05946676395296     -0.04430956640150     -3.04709117000670
  H   -1.33803867309172     -0.82101806459652     -2.76934157365063
  Br  -2.34850268302195     -0.09520245198623      2.39633560715545
  C   -3.26290576787118     -2.00972094468366     -0.72625846001526
  O   -2.99014604722370     -0.60092193451720     -0.66267599699639
  H   -4.26364863355680     -2.17949818460351     -1.12299233038015
  H   -3.16912846005892     -2.46053478563425      0.26129568276079
  H   -2.51571754851166     -2.45870558652967     -1.37333991299149
  H   -3.44987784571683     -0.25610907193431      0.11580527425380
  F   -0.22402255573733     -2.00633412454342     -0.48023292861738
