5
Coordinates from ORCA-job orca E -3865.921529458302
  No  -0.09357319133798     -1.09576400610661      0.46298361852010
  Sn  2.70856631844604      1.04973246530090      0.53492003213126
  N   0.95005665642902     -2.95893064167436      0.52030876321137
  Br  -1.44219062102415     -1.49034615164120     -2.00372378712125
  O   -1.42836916251293     -0.15173166587873      1.55757137325851
