37
Coordinates from ORCA-job orca E -3159.490759730771
  Sm  -0.09414225827522      0.30985092013883      0.37504296884977
  C   2.81297292081796     -2.78269721230088      2.41801405911395
  C   1.42773425656105     -2.18770614853314      2.26167745061807
  O   1.46020287002011     -0.85841612637360      1.88558520014807
  H   3.40715281321308     -2.19728780457855      3.11911995903492
  H   3.31100745495400     -2.77847024204126      1.44944625835256
  H   2.74635717955019     -3.80990340674748      2.77974244794014
  H   0.88865133916822     -2.16761458194493      3.22551367000551
  H   0.78964700991205     -2.76250960154678      1.58444916537016
  C   1.27242260374772      0.47367122872960     -4.28097480938132
  O   -0.15701384591476      0.52052280064866     -4.36167667156628
  P   -0.87300672994569      1.19729799474818     -3.06217567629371
  O   -2.37284937549977      1.05246631119567     -3.67292646296106
  C   -3.42190244574727      1.36920464501544     -2.74429255633153
  O   -0.85490506252552     -0.09141973920996     -2.00717795950216
  C   -1.10456810525538     -1.42922322836963     -2.48962132622012
  H   1.63566069324690      0.18653427819286     -5.26459687271403
  H   1.59879158681901     -0.25446557714335     -3.53648705116123
  H   1.68245011175019      1.44989390271599     -4.01325620780089
  H   -4.25463573539367      1.76540088468345     -3.32096373324296
  H   -3.09410303100313      2.09676206603442     -1.99972536839745
  H   -3.73307570539972      0.46522117214557     -2.21949009566894
  H   -1.56631195354742     -1.97769892845790     -1.67329692661193
  H   -0.15600930598716     -1.89048685664041     -2.75624595838716
  H   -1.76625774505386     -1.39055766504501     -3.35250591172819
  O   -1.50923122147831      2.09362252182619     -0.10412812686969
  S   -0.46453797662430      3.24543369961370      0.12216331492128
  O   -0.67676766679990      3.71031544097730      1.53074332182250
  O   0.84125546874167      2.38092188664932      0.16421275596092
  Cl  1.96483476968906     -1.11682659466655     -0.74829195458481
  Cl  -1.83667955405706     -1.65371254684855      1.00941845795763
  C   -1.89667617059154      1.11630014993017      3.18844032821496
  O   -0.61284654441027      1.31054540086693      2.60253632257085
  H   -1.96136060679638      1.65042435428235      4.13936265692176
  H   -2.03781446710028      0.05147416994259      3.35411091650379
  H   -2.68061829913650      1.47469896169673      2.51847515295639
  H   -0.55912727164801      2.27953347041402      2.34587926216030
