5
Coordinates from ORCA-job orca E -3255.182148450122
  Cm  -0.11045494899127      0.29276556682382     -0.70652248124919
  B   0.42423369719137     -0.72678372811179      1.30123359466370
  In  1.53626042770482     -2.51917620322287      0.18648417202485
  H   0.20508795465473     -1.67387016227633     -1.36813953164782
  Se  -1.36063713055965     -0.01997547321280      1.65900424620845
