36
Coordinates from ORCA-job orca E -2729.980822873835
  Er  0.18829456607041      0.93119620476372      1.71088078612853
  S   1.98833424524130     -1.98795261428576      5.09489413205237
  C   1.40498961813140     -1.03148855262321      4.02855666335104
  N   0.94832415016682     -0.28073295438588      3.18916398953210
  O   0.54040777460026      3.02044011917557      2.65955786950417
  H   0.93616955450135      3.10216420692149      3.53936295631954
  H   0.37762291699905      3.92216634108566      2.35311762127964
  C   2.03893308588602      0.91029231814557     -1.87959923603810
  P   2.01481271814436      0.06872252163360     -0.27282096947051
  C   1.61165570881850     -1.66125748897649     -0.65434553221052
  C   3.73585362304370      0.03826500275724      0.29877605463332
  H   2.73433333207898      0.40617256891630     -2.55102146381351
  H   2.35617556530656      1.94581166757501     -1.76428879614258
  H   1.04440679313063      0.89362298527380     -2.32419416808271
  H   2.34035378317511     -2.06727114712597     -1.35651408385389
  H   0.62175355632657     -1.71949449632427     -1.10630263476608
  H   1.62949801269328     -2.26331159280805      0.25384969365832
  H   4.36766180435775     -0.43201171014008     -0.45501986581276
  H   3.80980629752143     -0.52764737789089      1.22662207202505
  H   4.09780696020002      1.05031801539013      0.47503671287138
  C   -2.33218764992322     -1.41890874658773      1.25829727201114
  O   -1.68307141118096     -0.12259149592544      1.02689406006010
  P   -2.01117633208046      0.90017542904849     -0.30548433185188
  O   -1.70025706557881     -0.01329344219100     -1.54427864479218
  C   -2.66222222142534     -0.77318445793310     -2.34409638071168
  O   -3.58442328340132      0.97212808386186     -0.32621938637984
  C   -4.35390417338734      1.93075231787179      0.44934711426498
  H   -1.97533065932372     -2.12325545926785      0.51237374296217
  H   -3.40735881067153     -1.28607980438021      1.18766940345724
  H   -2.05197115454372     -1.74450201518221      2.25438018655487
  H   -3.13470913842119     -1.53528561656902     -1.73145979193408
  H   -2.08301086597926     -1.22631445683975     -3.13959067656071
  H   -3.40659928499934     -0.09780651926405     -2.75128333297522
  H   -5.29995807024378      2.04635920398527     -0.06605307400756
  H   -3.83783068317656      2.88820239056109      0.49005422356737
  H   -4.51968326205692      1.53580057173431      1.44813781517035
