5
Coordinates from ORCA-job orca E -3196.721675525615
  U   -0.73456806622936     -1.28697204174108     -0.46219376618667
  In  1.82921934078125     -0.13558581299585      2.01135188239156
  Sb  1.89085906641817     -2.46853307557561      0.26485168405987
  N   -1.64366659286673     -1.52372808673211     -2.00077885992787
  As  -0.64735374810332      0.76777901704466      1.25882905966311
