4
Coordinates from ORCA-job orca E -3403.941050768734
  Eu  1.15841206437975      0.48153048315896      0.41134242425845
  In  -2.54826769840417     -0.15683754350302     -2.50892813306543
  Te  -1.65002507838300      1.30267864449173     -0.36270690999260
  As  3.63637071240743     -0.80548158414767      1.02369261879958
