5
Coordinates from ORCA-job orca E -1553.886267747223
  Gd  0.47918267281219     -2.13731262587148      0.73195663129178
  C   0.34462025042682     -0.16437104621536     -1.22262557474412
  N   1.52743246789763     -3.09546307688082      1.71485989362354
  S   -0.12638042658506      1.03196731890075     -2.00844708683298
  I   -1.53036496455159     -0.28186056993306      1.85631613666180
