6
Coordinates from ORCA-job orca E -1328.271230015484
  Dy  -0.50136442884645     -0.33429490561091      0.13355409167332
  Li  0.99641660033773      0.96168862965572      2.37769427196460
  B   -0.05408334233121     -1.35268298529277     -3.37024052441514
  C   -0.13456612401903     -1.25061841587979     -1.98588545482403
  O   0.92642380381531     -0.44204868348648      1.34650682333833
  I   -1.19189211946972      2.33499396700853      1.43691524221321
