5
Coordinates from ORCA-job orca E -3769.887840624467
  Np  1.32571668121288     -0.27111351688492      0.47987741932368
  O   2.16571435613983      1.14506055278873      1.23511991209735
  Li  0.85459702862305     -3.53426354705103      0.10566838938285
  K   -2.23769427776150     -2.29233187301854     -1.18722507754573
  Br  -1.41384378821426      0.30560838416578      0.43861935674185
