24
Coordinates from ORCA-job orca E -829.088893048001
  La  -0.38439323354477      1.14739491718425      0.66382214290622
  C   4.10398160382706     -0.28809387356598      0.73028843749127
  C   2.77810703500498      0.06573691736761      1.33937234274045
  C   2.62272739098014      0.01286594817159      2.72974899314084
  C   1.44697421689472      0.32469988160498      3.42232799187982
  O   0.36201522710487      0.69971315166417      2.87506600810372
  C   1.42345788780078      0.22414039379469      4.92029418254527
  O   1.86377251850739      0.39857029182293      0.52083836619056
  H   4.84436846984569     -0.56806838853434      1.47397151378419
  H   4.46501214049101      0.56616689579865      0.15767539267149
  H   3.96009126681231     -1.10943643309042      0.02843931180816
  H   3.47751151532144     -0.28950846350469      3.31374532460770
  H   2.37298960370357     -0.10502938734713      5.33209904065974
  H   0.63609986759398     -0.47034100066097      5.21313485802559
  H   1.16370500406080      1.19899022460747      5.33283914856678
  I   -0.81232483664917      4.10141427298932     -0.09168053763539
  C   -1.91529580708127     -2.77916160756309     -0.30143184659642
  C   -2.56373505756374     -1.41949947306630     -0.49360510504713
  O   -1.73196292100043     -0.38824285946107     -0.03795256378152
  H   -2.56903453623434     -3.57705426103253     -0.65656863809967
  H   -1.70273578832655     -2.95227106335172      0.75411356805905
  H   -0.97603731169787     -2.83298389602473     -0.85303705857352
  H   -3.51706757676472     -1.38649755086000      0.04480751910470
  H   -2.79282667908586     -1.26620463694267     -1.55360839255200
