6
Coordinates from ORCA-job orca E -2894.751470084237
  Am  0.09435423136729      0.16357927181220      0.04072715071700
  Cl  0.40554202614990      0.70347153102337      2.42544730020058
  Cl  0.32765234754796      0.56740526626573     -2.37194230239716
  Cl  -1.12083996681050     -1.94214903927215     -0.16143415064091
  Cl  2.26484535542980     -0.96925725461267      0.03320559267744
  Cl  -1.97154399368446      1.47695022478352      0.03400640944306
