35
Coordinates from ORCA-job orca E -2364.492452878023
  Tb  -0.21978421253142     -0.64851370656612      0.41939371206977
  N   -2.67454706055180     -0.29000043840572      0.68689692473753
  C   -3.06361324666315      0.81721549971846     -0.21479806871519
  C   -2.22908992600672      2.03916498531683      0.11528496051007
  N   -0.77811852327222      1.80305758842662     -0.09426505958833
  C   -0.25994207986173      2.21357866602769     -1.42152839526644
  C   0.15392816097499      1.01947481941485     -2.26294079849353
  N   1.12974504514065      0.20029437029097     -1.50058328515721
  H   -3.17320958416179     -1.13722600293845      0.43307786121168
  H   -2.93526672185751     -0.06454339716883      1.64283087558511
  H   -4.12314704928167      1.06099940758976     -0.12638668804773
  H   -2.89038377222823      0.48690287788079     -1.24120510604106
  H   -2.36223395384403      2.29582090943129      1.16841959164489
  H   -2.57036435015343      2.89575707831141     -0.46888211209549
  H   -0.30742449248410      2.35809420469603      0.62030795347404
  H   0.60495142718334      2.86212285998196     -1.26914665268859
  H   -1.00254882993472      2.80109889435291     -1.96307324645703
  H   0.56486454477023      1.35660692291769     -3.21519502099682
  H   -0.70176673615297      0.37865194505681     -2.48677469184899
  H   1.98129435015601      0.73239868306814     -1.34613953566188
  H   1.39373289866219     -0.60947623534862     -2.05515612805489
  Cl  -1.03083104194440     -2.38807434951987     -1.22942152431307
  S   -0.08475091048981      2.83493675142418      3.15664713537443
  C   -0.09528943823020      1.26155189348982      2.86397278837051
  N   -0.10969022210825      0.10886024422905      2.57985859035354
  C   3.63831066826576     -2.45975886219886      2.47850570500714
  C   2.51781866689110     -1.71229874918003      2.15025508823091
  N   1.74412128767912     -2.05273543582738      1.11316894087508
  C   2.08982461680765     -3.14814506530629      0.42518833341933
  C   3.21161008991067     -3.88362223685938      0.77400364987852
  N   3.98976505729554     -3.54060281806366      1.79330576486142
  H   4.26111854017592     -2.17550049131669      3.31631127946897
  H   2.22531600432447     -0.84493445284343      2.72590226593138
  H   1.45329108487372     -3.43863168874451     -0.40028150693138
  H   3.48300970864675     -4.76922467133740      0.21494639935328
