7
Coordinates from ORCA-job orca E -1605.228756995365
  Lr  0.00152095504141     -0.00139565639561      0.00083093854699
  F   0.58284746478867     -0.77694161908368      1.93494011167918
  F   0.75868124570868     -0.57943358293349     -1.94184742878853
  F   -0.56315486574059     -1.92514665947249      0.81268468600177
  F   -0.76801170484215      1.94326288032730      0.55311475609135
  F   -1.93715417798442      0.78988362594982     -0.53909335970601
  F   1.92528108302841      0.54976101160814     -0.82063970382475
