44
Coordinates from ORCA-job orca E -1742.105144925465
  Nd  -0.03917677460752      0.10428177507771      0.79860683403375
  N   2.02129141091322      0.65584136970061      2.14568960893309
  C   3.22336556174495     -0.04926744528605      1.57518268382383
  C   2.89825170498676     -1.51019486540614      1.37931787546088
  N   1.76640416718945     -1.64876739396258      0.38761312913814
  H   2.23298452508586      1.65466241711996      2.17435990373471
  H   1.96543260935857      0.39992143110262      3.13299066950406
  H   4.08272204415986      0.06390517183223      2.23487582146077
  H   3.48055873949642      0.42859661509354      0.62783552761898
  H   2.58347179330790     -1.96949330100463      2.31759038266067
  H   3.77478018194455     -2.05485959350403      1.03165866975567
  H   1.47433817358195     -2.62646821923397      0.39630889628099
  H   2.17935743064938     -1.54568400271016     -0.54147952052656
  N   -1.27019493899821      0.51195332484273      3.02367545511245
  H   -2.28843485244545      0.58063100755615      2.96532830868364
  H   -1.00191865968179      1.39373498210833      3.46847322350728
  H   -1.11681199938603     -0.18029945999841      3.76036486979608
  C   1.20339615529240      3.97347261757239     -2.30975576479298
  C   1.44988156057047      2.62210407879083     -2.54838635842196
  C   0.99514435053761      1.70873518506781     -1.62508553078195
  N   0.32306110056912      2.05913106814184     -0.50423325880859
  C   0.08918345930458      3.37291142614205     -0.28414091344935
  C   0.51153740893707      4.34933731197229     -1.16270963856789
  H   1.54864533241872      4.72284511326760     -3.01104262220280
  H   1.98370994525547      2.29439010910869     -3.42954280270414
  H   1.16978843581204      0.64194451959310     -1.78995318283647
  H   -0.44942031623970      3.63741178969464      0.61799841651511
  H   0.30524889920607      5.38922453179674     -0.94915931395211
  C   -5.58903105162283     -2.23906714049014     -1.00450336215051
  O   -4.28378004902343     -1.61341597146241     -0.47190072372909
  P   -2.80114949145563     -1.61820624952203     -0.76860751094517
  O   -1.90130163013399     -2.00306503528174      0.48995976850109
  C   -2.16452764320669     -3.31288371566196      1.20588274760596
  O   -2.18152745612833     -0.16317107106512     -0.96000212346183
  C   -2.77758890534819      0.76441833687713     -2.00002414879395
  H   -6.27638016907334     -1.40334173093096     -1.03959755895713
  H   -5.86130006250084     -2.98183011331093     -0.26585659556008
  H   -5.37373081911281     -2.65779331336812     -1.98037784194850
  H   -2.04905335002751     -4.12493601230274      0.49444896694850
  H   -3.16240325469915     -3.26685079432733      1.62932015245606
  H   -1.41227683504178     -3.36930890523394      1.98316457378387
  H   -2.14698460707429      1.64412767381243     -1.97987962672838
  H   -3.79262328127183      0.99525119516636     -1.69442079664142
  H   -2.73123884324290      0.27167128262556     -2.96628728935469
