4
Coordinates from ORCA-job orca E -576.120081993548
  Pu  -0.11303778163902     -1.24276178566643      0.98672551393089
  Li  -1.88786070190222     -0.56030674490547     -2.12811478737749
  Li  0.31454684737206      1.22483162784761     -1.28690468347207
  Li  2.28284163616917      1.40012690272431      0.99169395691867
