29
Coordinates from ORCA-job orca E -2692.718591838508
  Lu  -0.67604643297306     -0.06182090800784     -0.38540304078555
  N   0.63573450631800      0.07950917406833      1.71896338797522
  H   0.66023288067764     -0.91540298723347      1.96847714323990
  H   0.33007646668439      0.62457217989574      2.51245257507308
  H   1.55771885102153      0.38381683361181      1.42735506057518
  C   2.88680806143009     -1.01658355681718     -5.50840706192612
  C   4.00464409920242     -0.65308930706458     -4.76696154564325
  C   3.84755352016481     -0.15010576835602     -3.48329228383581
  C   2.58107748729179      0.00082530035313     -2.92987877135564
  C   1.46312674556001     -0.36492558333722     -3.67282322092287
  C   1.62051721739390     -0.87309617135853     -4.95645566565151
  C   2.44263021087521      0.57168691148633     -1.51915687159608
  O   3.47516891510091      0.82105090809370     -0.89252634480369
  O   1.25296358094040      0.76924289226880     -1.12676784158688
  H   3.00330606866235     -1.41592990347217     -6.50989335221442
  H   4.99707758371493     -0.76755031139363     -5.18891382238423
  H   4.69600587701757      0.13513259521534     -2.87532626477621
  H   0.47323370443542     -0.25509988417193     -3.24373782209300
  H   0.74475676591639     -1.16478248632186     -5.52366998176339
  O   -1.64689057019520     -1.77104789581585      0.66233999188813
  S   -0.50330140478513     -2.82038897855853      0.48653604515445
  O   0.40100790673704     -2.00970128765648     -0.49622940736549
  O   0.22670355370706     -2.88421158868455      1.78992135810452
  O   -1.68088864699020      0.16239904499851     -2.22404501196831
  H   -1.68732449063441      1.00757903755899     -2.67213905843677
  N   -1.96264170301718      2.29183069118704      0.68356532068967
  O   -0.93426238510822      2.38840099070709     -0.03577451542195
  O   -2.36407438241930      1.12482189476027      0.93927245860500
  O   -2.54001398672925      3.27936816404477      1.11891854322621
