6
Coordinates from ORCA-job orca E -610.909015783129
  Pm  0.05914264048973      0.17049176254122     -0.00257900514316
  H   0.17850117976635      0.34526556603550      2.02036697741318
  H   0.18149639502785      0.33305616291815     -2.02590917455072
  H   -0.83035900116458     -1.60084984844492      0.00646494407385
  H   1.97474310148601     -0.72745834414466     -0.00230257379026
  H   -1.56351431560534      1.47949470109469      0.00396883199711
