5
Coordinates from ORCA-job orca E -6215.078109377275
  Md  -1.02766632417330     -1.95639448934216      0.36579904964371
  Na  1.51544299891490      0.12835936428314      0.49547261591219
  Br  1.62128551446131     -2.65043913817000      0.52302380479128
  Be  -0.42009674870378     -0.63962187303566     -1.95019421363473
  Br  -0.99447544049913      0.47105613626468      1.63795874328755
