31
Coordinates from ORCA-job orca E -1221.033799862875
  La         -0.62682064440550      0.40995133840607     -0.16551236064526
  C           2.39575103606313     -0.86447906435590     -1.36609825516125
  C           1.60863831804921     -2.06169237163996     -0.79740162156934
  O           2.23920544095193     -3.09467453516522     -0.53899077928180
  O           0.35564547687152     -1.87038113643910     -0.59487152123723
  N           1.51017013554519      0.22237161797989     -1.80984577264007
  H           3.07786599442652     -1.23747945334082     -2.14474083775246
  H           3.00676990098597     -0.48649581546182     -0.53729038706419
  H           1.02112832185597     -0.00873475945858     -2.67000942898913
  H           2.01405139113629      1.09010816231858     -1.95487642329899
  C          -2.07910942996436      2.39535286935509      1.13551018072220
  N          -2.25811554352722      3.45244162804765      1.60102966092449
  C           0.78896715180560     -2.23939805742748      2.47983440288766
  P          -0.98370999038469     -2.43302450588621      2.13489218094963
  O          -1.65042855633061     -1.26167958331506      1.42880469771954
  C          -1.78770234092556     -2.67308665430914      3.75850547344268
  C          -1.18031518854604     -4.00514095946758      1.24744477558121
  H           1.03642508543022     -2.68540441730146      3.44913724292033
  H           1.03472997939318     -1.16880884147578      2.47812466854327
  H           1.37099013264656     -2.72029453538280      1.68531952090035
  H          -1.38019323788440     -3.54442770583005      4.28137679361204
  H          -2.86394368010602     -2.80435431835477      3.61046324850369
  H          -1.62766592783525     -1.77641772616267      4.36562704625448
  H          -0.75044319290919     -4.82954493060181      1.82666860918757
  H          -0.64491953915430     -3.90157037068580      0.29753987761917
  H          -2.24270208790317     -4.19451740302309      1.06424960784788
  O           0.60547591751923      2.87343065093101     -0.10193215992300
  H           1.09840602575047      2.38448247218665      0.59282182104450
  H          -0.09714233577043      3.34104411363524      0.38076459537669
  F           1.24437527854326      0.69289660623828      1.22471887405734
  F          -1.44572210902753      0.57578328388671     -2.24913462633206
