46
Coordinates from ORCA-job orca E -2015.472223686618
  Tb  -0.11922703565411      0.06894725775530      0.32704205206347
  C   4.47699410602220      0.07811180163359     -0.02945250902041
  C   3.12235897910991     -0.53035501304779      0.17407461322566
  C   3.01621880201884     -1.88424419729514      0.51495434837843
  C   1.81306752992675     -2.56683980849639      0.69062800557274
  O   0.65609332989388     -2.03490485931620      0.57115383913771
  C   1.83018977372983     -4.02639364254953      1.03675541786841
  O   2.12683162735721      0.24976323942631      0.01595814225031
  H   5.28219671092541     -0.63306085315439      0.12646685042772
  H   4.59413066942507      0.91671905818869      0.65712311131482
  H   4.53726139010364      0.47657878969021     -1.04263280761578
  H   3.93081900322134     -2.44267318169237      0.63465193302690
  H   2.83705104357300     -4.42277475055089      1.12449669221163
  H   1.29063391544685     -4.58427790255183      0.27017080116036
  H   1.30026164872905     -4.17187308382935      1.97847144241136
  C   -1.88524667752743      2.98077433664878     -0.62080479524867
  C   -0.45343820323194      3.33603808918752     -0.93709523817141
  O   0.33230698510862      2.12360899649249     -0.82120538086782
  H   -2.51610401097659      3.86329106412617     -0.70913104818712
  H   -1.97592637576629      2.60684347109427      0.40122665820205
  H   -2.25999568615596      2.22829931571861     -1.31648949219650
  H   -0.06366504715091      4.07236262616864     -0.23521059716798
  H   -0.34964294242942      3.71792354504760     -1.95170768398139
  H   1.27466331532943      2.29028862438682     -0.93188443732785
  C   -2.66132685640465     -0.13034639768323      3.56948408859077
  C   -1.54246150000103      0.86396725225922      3.32180788608981
  O   -0.93673175906946      0.64201552010814      2.07308089932578
  H   -3.12964503820096      0.04175675932748      4.53857223321409
  H   -2.27201378072665     -1.14970118444974      3.55535319709097
  H   -3.42894243343403     -0.03743695741615      2.79904145014438
  H   -0.78921830642087      0.78382529687301      4.11021466189116
  H   -1.93619350923449      1.88444446244130      3.35527054014122
  C   -3.98668025903032     -1.95841930582569     -1.97714406217056
  P   -2.40463413258537     -2.18778324252825     -1.17783560436776
  O   -1.71118900117896     -0.84651078951285     -0.97291767767916
  C   -1.41307171770120     -3.26691970555821     -2.20311886953782
  C   -2.67758220135934     -3.01601700349002      0.38379497366201
  H   -3.83787858365416     -1.46958155817852     -2.93891364526290
  H   -4.61757148151653     -1.32685198863891     -1.35312002614461
  H   -4.48054216839092     -2.91675435978019     -2.13353082579548
  H   -1.90473345226070     -4.22844195347937     -2.34616266551139
  H   -0.45089665277021     -3.41961777387141     -1.71502339590197
  H   -1.25120668924583     -2.79806064422654     -3.17283300131856
  H   -1.71078693004180     -3.18376005012893      0.85948006048567
  H   -3.18353525433676     -3.96951431414141      0.23623596326185
  H   -3.28649114346398     -2.38114498518069      1.02730390232581
