4
Coordinates from ORCA-job orca E -875.343447212088
  Eu  0.41635160513954      1.03806248932780      0.53711416886824
  Be  0.57805816826541     -1.85606222793384     -1.52111227990744
  O   -0.86488477432813      2.30294395835659      0.35256781071681
  O   0.49780527479300     -0.67209016589925     -0.78617582443357
