4
Coordinates from ORCA-job orca E -1571.421604503031
  Cf  0.07855614743647     -0.91204607284887     -0.36019674960169
  P   -2.12765469867858     -1.43679030401824     -1.82497424645866
  I   0.16773437951254      2.06799372728550     -0.31414864179646
  Mg  2.47785417172957      1.10273264958161      1.06271963785682
