6
Coordinates from ORCA-job orca E -7113.498968225095
  La  0.51914496480751     -0.11984930159649      0.41665012059788
  Ge  -0.13272998030496      0.05427993541304      3.33421926109425
  Se  -1.58050529426650     -0.61084078850685     -1.68825440556217
  Te  -0.63365785348408     -2.76439824125774     -1.02661051552557
  F   2.44843564804740      0.51364174131371     -0.25114670064365
  As  -0.62067748479936      2.92716665463434     -0.78484775996075
