5
Coordinates from ORCA-job orca E -491.061306414623
  Ce  -0.55506761275310     -0.74931599860437      0.08286753271244
  Li  2.67672045661972      0.01760430672768      0.33867163519737
  Li  1.99632990254918     -2.74381034375192      0.86628107230189
  H   -1.49579786665690     -1.00865048112608     -1.77457665969987
  H   -1.92769487975891     -0.16286748324531      1.55881641948816
