6
Coordinates from ORCA-job orca E -611.945947617707
  Am  -0.00449689419041      0.32457840558062      0.24746189467920
  Li  1.69895277010418      0.04877544178419      2.97106676603111
  Li  -1.06076686669793      0.14827218568109     -2.38418177134689
  H   -0.74400621085581     -1.06357049842069     -1.17186474389763
  H   1.61079940365143     -0.60084505825221      1.35287168990005
  H   -1.50047220201145      1.14278952362701     -1.01534383536583
