31
Coordinates from ORCA-job orca E -2169.963895846257
  Tm  0.15703660485329     -0.23991682423764      1.04145337698049
  N   0.09795319688916      2.19363408365899      0.49520568831864
  C   1.19764725093186      2.60815724963959     -0.39078505670785
  C   2.42569579943474      1.76639686997398     -0.08862038828113
  N   2.12133522612060      0.34602354623713     -0.33929413229045
  H   -0.79229373195336      2.54747649373857      0.17028886612136
  H   0.25538365644816      2.53407916383228      1.44021620964370
  H   1.43976765098711      3.66854488892480     -0.28933944869776
  H   0.88134262204833      2.44047808089686     -1.42234324520486
  H   2.67579131727591      1.85702117692514      0.96951745407056
  H   3.27825675000927      2.11973100405804     -0.67229966805506
  H   2.77737447783554     -0.24553965973316      0.16439505685165
  H   2.17268909263733      0.12534183144126     -1.32590241850485
  O   0.88451267522156      0.96151525563481      2.89030081962938
  S   1.32693634626707     -0.44509268594224      3.39345992061030
  O   2.22903047011317     -0.88857959470538      2.22840863687123
  O   0.03247659841202     -1.24453602282347      3.07777911188096
  C   -2.97779567104597     -2.38115048185309     -0.59451799906900
  C   -2.87357288044446     -0.87325378541720     -0.40893535176562
  O   -1.60845084791663     -0.50118660332197      0.02728145814269
  H   -3.97638707291380     -2.68032267618707     -0.91640634978703
  H   -2.75963185684801     -2.89051542715045      0.34686153038228
  H   -2.27093717594976     -2.72060304443693     -1.35758121751676
  H   -3.63753947171932     -0.55190976303375      0.31034306091695
  H   -3.11194803613299     -0.37936630046782     -1.36047448326214
  C   0.98707722777898     -3.50150559248480      1.00194839983368
  O   0.51607848650176     -2.41563427240385      0.17471747690261
  H   1.17608539398747     -4.37618779721263      0.38149337021664
  H   0.26056256913839     -3.72187893675192      1.78115718953313
  H   1.89934066397263     -3.15083147486521      1.47116366958559
  H   -0.34691733194006     -2.63218870193284     -0.19539153734942
