56
Coordinates from ORCA-job orca E -2507.084581596953
  Sm  -0.12419311216921      0.06034702847705     -0.80515683401264
  C   5.16214671234306     -1.59166850197470      3.80047593450711
  C   4.54885903254421     -2.18404677036705      2.70071833062607
  C   3.67050387449103     -1.45133585783917      1.92789438508330
  C   3.41277928369892     -0.11265472424226      2.24332324105665
  C   4.03327770480260      0.47595023074356      3.35265578914662
  C   4.90175298457481     -0.26632579764697      4.12951204734896
  C   2.50145869538864      0.64464419641740      1.40125602186692
  O   1.68814678999981      0.11787793546952      0.61297751058779
  O   2.49685574596160      1.96080819781238      1.43415422806444
  H   5.84759890646680     -2.16761095829049      4.40686452135512
  H   4.76624380516074     -3.21281690344856      2.45206216606869
  H   3.20536487136600     -1.89413553333400      1.05790595479980
  H   3.81891612919746      1.49474504190796      3.65593857624510
  H   5.37150467270999      0.18157081532998      4.99320540532050
  H   3.19809057985160      2.30490009646528      2.00618619695784
  C   2.09715037094393      2.56850547903335     -2.61412638078163
  N   1.39476131119738      1.82255105858676     -2.09117181129011
  N   -0.45097616238013     -2.14454753597237      0.47227684727736
  H   -0.84143327565887     -2.03869015220364      1.40629338548370
  H   0.47473989664633     -2.54066805117794      0.62051827258823
  H   -0.99134363206038     -2.88482495262431      0.03106709260472
  C   -4.33518471284505      3.49315648122656     -0.16510189304400
  O   -3.21854636960204      2.56442897860981     -0.38353299715365
  P   -2.32034608358454      2.07319262696036      0.84246162770672
  O   -0.79271333928525      2.24150309477500      0.17598299566655
  C   -0.24438301292809      3.59338368840760      0.24282712555898
  O   -2.21548888136842      0.43306375274942      0.45397546356973
  C   -3.41767459506928     -0.33436536621523      0.75982380163871
  H   -5.23644659117662      3.01028691012300     -0.52593069759688
  H   -4.12926148066903      4.39272932347862     -0.73421442393578
  H   -4.42994911763078      3.72725097554649      0.89322054903334
  H   0.83487366095661      3.50261241404693      0.23026479653962
  H   -0.55581107054935      4.06687733323772      1.17294619738010
  H   -0.60202526157444      4.16681508709219     -0.60821935789457
  H   -3.18855852410637     -1.38246380078917      0.59844428249649
  H   -4.22467909002231     -0.02958869700306      0.09812705892207
  H   -3.69930137189814     -0.17737349236952      1.79924460950353
  C   0.89606882123852     -3.87285051790463     -3.31315865222434
  P   1.28653428883200     -2.14475808180857     -3.51904546264948
  O   0.64357233778255     -1.30572565784441     -2.38672595002866
  C   3.06042636735579     -1.95536573241832     -3.49514965294293
  C   0.67758329408272     -1.61522482681103     -5.11039387171521
  H   1.28758883510836     -4.23776516699272     -2.36417509393780
  H   1.35023464045302     -4.45145484340032     -4.11848405155938
  H   -0.18272118454006     -4.02157843070049     -3.34726520600224
  H   3.32759288220295     -0.91069220031738     -3.64956306697597
  H   3.50935195749265     -2.55098988075951     -4.29066014253786
  H   3.45856755166218     -2.29350900192128     -2.53903280736371
  H   1.14312578545689     -2.20626820137607     -5.89987282789637
  H   0.92060858756239     -0.56619270124502     -5.27580290096507
  H   -0.40130214587260     -1.75665247528028     -5.16582946326825
  N   -1.79104885397148      0.87106700455914     -2.58436628183673
  H   -1.35944255668586      1.30757519954677     -3.39533999360439
  H   -2.41169328064060      1.57453600712185     -2.18266730956315
  H   -2.40375667124267      0.15446585655418     -2.96731728422321
