5
Coordinates from ORCA-job orca E -647.400570797497
  Th  -0.25457613651234     -1.48903219870149      0.71548327251836
  Be  1.47373111757086      0.71990712341251     -1.45894790197467
  O   0.56941593512099     -3.31274288189378      0.49124986171174
  O   0.69133202887423     -0.10269212579817     -0.55545788535439
  O   -1.78541294505374     -0.46247991701906      1.87973265309894
