5
Coordinates from ORCA-job orca E -11061.823395223948
  Gd  0.27494738767727     -0.75592354557048     -0.09272493872207
  Br  2.22431084856615      1.02202691279326     -0.14900962275839
  Br  0.44490661136001     -3.06902246590258      1.51962398968137
  Br  -0.92596245422461     -0.96059147690023     -2.43203643142258
  Br  -1.32371239337883     -0.88352942441997      2.22620700322166
