5
Coordinates from ORCA-job orca E -1203.750408531780
  U   -1.59720018001431     -1.12951296330712     -0.09856739263863
  Li  1.01398078854955      0.73159020274861      0.03212406644644
  In  0.93005148329790     -2.76994533081962      0.56161445268392
  Si  0.49230194597656     -1.12071603367657     -1.65637011468277
  Sb  -0.14464403780971     -0.35845587494529      2.23325898819103
