19
Coordinates from ORCA-job orca E -5360.653922469617
  Yb  -0.94436072052776      0.00856847853444      0.01011450204263
  C   -0.69860586460581      2.68878127799509      0.56924402235345
  O   -0.70988814728150      3.80800485276804      0.66469020071026
  Cl  -0.50327740125404     -2.39314375246124     -1.02052128135917
  F   2.80616441974647     -2.84060004248289     -0.19333743454300
  P   1.99028844680499     -2.14671630011425      0.97398614438596
  F   1.87923851441590     -0.71284714588053      0.29392116068038
  F   3.26696301013948     -1.78996688543142      1.86107381953668
  Br  -2.95288552340808      1.26559264846761     -1.53698623286445
  C   -0.38181710055704     -0.17882003567822     -3.82649750643561
  C   0.25700747610183      0.51605123816138     -2.72246068500238
  N   0.72659497286901      1.05186680148084     -1.82028122902638
  H   -1.40649454365771      0.18551673364047     -3.89575975734721
  H   -0.39552756515252     -1.24143866022117     -3.58564498713776
  H   0.16002296353367      0.00389268125797     -4.75196627162885
  N   -1.06225495459164     -0.17193410239446      2.86902638606947
  O   -1.11482838698603     -0.27908220194365      4.07257386085992
  O   0.04946755083581     -0.10917380395516      2.25326653380585
  O   -2.10340714642501     -0.11055178174285      2.15325875490022
