4
Coordinates from ORCA-job orca E -3659.342745160887
  Dy  0.18265324859212     -0.06176315412586     -0.41981348882158
  O   -0.83381612007067     -1.19634184700131     -1.47761239298561
  I   -1.51201758912148      2.62842963418053      0.23139894909449
  Se  2.75967046060003     -0.54843463305336      0.22942693271270
