6
Coordinates from ORCA-job orca E -648.649628911184
  Cm  -0.16071991743037     -0.35093461323128     -0.19675385325988
  Li  1.31620206256273      0.35536453572589      2.38549882030708
  H   -0.63033813346321      1.10153995441082     -1.75615080537041
  H   -1.17216795557414     -2.12333346100065     -0.26141238303171
  H   1.71526708342732     -0.43067151771380      0.88634848203670
  H   -1.06823313952232      1.44803510180902     -1.05752026068178
