56
Coordinates from ORCA-job orca E -2467.055060053247
  Tb  -0.48938831442337     -0.11176534951532      0.35758311313153
  C   -0.97101357834385      6.72202376075529      1.54356322101935
  C   -0.26422091567402      6.26483631041300      0.43857151930554
  C   -0.16798902213865      4.90527946196315      0.19625250754359
  C   -0.77967081777977      4.00363054601025      1.06259149032582
  C   -1.48591070158050      4.46257848329261      2.17048227550629
  C   -1.58123599898863      5.82326652531149      2.40886375280339
  C   -0.67573538657043      2.55089469145807      0.80423401000534
  O   -1.21733175760065      1.71420360581542      1.59928007107021
  O   -0.05102024435352      2.11919210025331     -0.21714647130834
  H   -1.04442151024745      7.78439906392292      1.73234847272266
  H   0.21193450064845      6.97001486052922     -0.22841927557806
  H   0.38269156490282      4.52794249896422     -0.65378230200211
  H   -1.94980183864664      3.74725282993391      2.83460084060617
  H   -2.12753400119593      6.18538734644375      3.26849204939996
  N   -2.66696443177377      0.48648374487706     -0.89961129724920
  H   -3.13990000037111     -0.35281259597042     -1.21782597825362
  H   -2.55699881311808      1.09363876799019     -1.70529348926508
  H   -3.28947384271909      0.95930121810651     -0.25216843228737
  C   -1.27741619556936     -2.32734734046263     -0.52676503234583
  N   -1.71272335599326     -3.39775925573944     -0.42823059228911
  C   -2.05549718506097      1.20068737263896     -4.96368053267850
  C   -1.85988527848796     -0.04410776878769     -4.37766415981069
  C   -0.78672154543861     -0.24721011655571     -3.52475011347679
  C   0.10398196107866      0.79704228829332     -3.28438496902360
  C   -0.08704577972139      2.04361297795764     -3.87589280749216
  C   -1.17579053375128      2.24543370375581     -4.70828895416061
  C   1.23586247241430      0.55224278624544     -2.36187404984294
  O   1.14437851634403     -0.18045224638610     -1.38571599535092
  O   2.39566350932821      1.12990450698827     -2.60752444248633
  H   -2.89683483884989      1.35776554969983     -5.62467637958660
  H   -2.54029640891692     -0.85764342457585     -4.58833397670863
  H   -0.62894205838057     -1.20955596326730     -3.05487602033276
  H   0.57959019901911      2.86807062568773     -3.65338130136633
  H   -1.33988018045890      3.21542398137854     -5.15570896891399
  H   2.37563554608379      1.59942838557721     -3.45032628559831
  C   3.13449725882527     -2.53469678730271      2.61859967317866
  P   1.68103198338860     -2.65957368047646      1.58430067696696
  O   0.98387456206671     -1.30336234725832      1.51188267257328
  C   0.60284968210726     -3.90510390514912      2.27443219832473
  C   2.19317982242605     -3.21589072897452     -0.03485435843129
  H   2.84022711702959     -2.21014276571822      3.61566156957096
  H   3.81601249217755     -1.79850096428860      2.19467908493063
  H   3.64017748533129     -3.49703832292852      2.68738367745605
  H   0.26392103593101     -3.58472365059060      3.25899723912743
  H   1.12869369924787     -4.85492850324262      2.36780038440117
  H   -0.25230743500902     -4.03033636524940      1.60927912893274
  H   2.81532532718633     -2.45042093127043     -0.49725629076690
  H   1.30485898751766     -3.37754811258051     -0.64547737548910
  H   2.75416462908363     -4.14681474438868      0.04266069940558
  C   -2.82344930299664     -0.63917900899860      3.05515695596107
  O   -2.21491391249499     -1.04158767821793      1.81765690079032
  H   -2.47976455509342     -1.27261452626319      3.87112093555951
  H   -3.90774780949974     -0.69176221031916      2.97704679139536
  H   -2.51844641601482      0.38690834419079      3.23208305550076
  H   -2.47167838487462     -1.93616704397631      1.56420488458023
