4
Coordinates from ORCA-job orca E -8359.469330444845
  Cm  -0.04271096062351     -0.07055192352236      0.12236677259517
  Br  -0.97387022168919     -1.39111404443031     -1.95635803120201
  Br  -0.97558864343280      2.38932137243655      0.19228074643000
  Br  2.58865982574550     -0.10576540448388      0.20511051217684
