37
Coordinates from ORCA-job orca E -1755.556810150670
  Tm  0.07487044043629     -0.16204518404878     -0.24678442300331
  N   1.00771263086259     -2.09078059946188      0.85938431295715
  C   2.13115920718849     -2.55191383121937     -0.02419755493108
  C   3.11325337916256     -1.41682867899175     -0.22366392167333
  N   2.41915910599045     -0.26215113284873     -0.87060868073646
  H   1.37162650537553     -1.97668971820417      1.80394043259089
  H   0.32979513946385     -2.84689552356149      0.93927219371466
  H   1.70118993384389     -2.86112989135174     -0.97919060063529
  H   2.63205404163597     -3.41680872799929      0.40701506155026
  H   3.95662417987760     -1.75475032271930     -0.82319682334481
  H   3.50766699624881     -1.08082287235122      0.73598767161446
  H   2.37058605891793     -0.43699495314635     -1.87577468530835
  H   3.00250336071653      0.56659384618745     -0.78573188019669
  C   -0.94158990616357      2.75856242454119     -0.89363457609592
  C   -1.30902494923295      4.04526785817102     -0.19084377203381
  C   -0.09361933057738      4.29315900656522      0.70174301216004
  C   0.21617748034270      2.91106539075542      1.23620224648528
  O   -0.17484313935833      1.98818067333878      0.13594366737306
  H   -0.27349636917257      2.91797872106838     -1.73787138021540
  H   -1.79047167736156      2.14554434967940     -1.19469391858062
  H   -2.21306815486265      3.91707600664889      0.40385291753598
  H   -1.47893382824607      4.84799850008884     -0.90403692320677
  H   -0.29892298373702      4.99104112105202      1.50956867561939
  H   0.74313325061864      4.67887929137809      0.12049431982495
  H   -0.39629727175234      2.65329483192562      2.09831067712583
  H   1.26841667595116      2.73798053683912      1.44933304502901
  C   -0.35203841412527     -0.75639039915259     -2.40101105340213
  N   -0.47930424327348     -1.23412962460224     -3.44616805808581
  C   -3.65877315931013     -2.21738617730007      1.36329658716781
  C   -3.01542609200189     -0.86592974754514      1.21383610407499
  O   -2.03932982164815     -0.86944971920180      0.09587583065273
  H   -4.37195325985884     -2.18219938115494      2.18602311225416
  H   -2.92610001622583     -2.99196411711386      1.58441548540764
  H   -4.21291673605848     -2.49307321118299      0.46558902283532
  H   -2.43490007816530     -0.58411391432418      2.09074109201801
  H   -3.73780060226131     -0.08190466796237      0.99938094016960
  H   -2.46741835323986     -1.24187016279531     -0.68909815671143
