7
Coordinates from ORCA-job orca E -2801.381985250051
  Er  0.00247246722949     -0.00209758300310      0.00191326970179
  I   0.30537575114740      0.64214199923062      2.87775023749746
  I   0.63200120276804      0.30419928206861     -2.87724620624281
  I   -0.63523512865104     -2.87811492603122      0.30898490022508
  I   -0.30727561713332      2.87677932119213      0.63486999017055
  I   -2.87480274493685     -0.64115553521632     -0.30170486558907
  I   2.87747406957628     -0.30176255824072     -0.64457732576299
