4
Coordinates from ORCA-job orca E -1096.120113254422
  Pa  -0.97559957965835      0.18084435596550      1.19796002345574
  Sr  -1.19657314432177     -0.83144395689146     -2.17931271169401
  B   -0.00345335357493      0.80772784774793     -0.55543682847984
  K   2.77211607755505      0.66476175317802      0.10018951671810
