21
Coordinates from ORCA-job orca E -2236.070143398329
  Lu  -0.34342311866517      0.25803405599172      0.60101456726481
  C   2.11909940309776      1.15392048659213      3.44032620124523
  C   1.15213211972753      0.23217867340296      2.77343740627577
  C   1.49136111605591     -0.81837362469200      1.86515078251941
  C   2.16409256694390     -0.52613573269182      0.64166622333636
  O   1.47038898174973     -0.71733909440059     -0.40419065279536
  C   3.50466770975110      0.11815973535158      0.52074240409270
  O   -0.09146935499836      0.45786341262859      2.87541762328686
  H   3.10590096781378      0.71473252088948      3.54796703359991
  H   1.71523137185788      1.41893416997013      4.41580060223382
  H   2.18758221153686      2.07606266840373      2.85956030020985
  H   0.68348970316700     -1.54589040587195      1.74102208776341
  H   4.04064673830177      0.14772002519900      1.46383864566227
  H   3.38679569978496      1.12490810470142      0.11837419577031
  H   4.07966862646099     -0.45312126114845     -0.20805822916724
  S   -4.59142273226387     -1.87412884133814     -0.62662354665678
  C   -3.22096213746180     -1.18520885629094     -0.23425560304553
  N   -2.19117605532107     -0.67005893923630      0.06201219896489
  N   0.11058161852807      2.23763996112568      0.10672325695643
  N   0.25316710148115      3.38516790819538     -0.22758239590663
  N   0.39734746245182      4.45963503321835     -0.53684310161061
