41
Coordinates from ORCA-job orca E -1355.630711514570
  Ce  0.02191013280792      0.26584699598228     -0.70459776483106
  C   -3.20896242774461      5.49378551318130      2.35068855217150
  C   -1.93865867413776      5.14008584283993      2.79666381755412
  C   -1.27671260693074      4.08291654339679      2.20708784685070
  C   -1.89615343861889      3.38185377955137      1.16473543094843
  C   -3.17372112838723      3.74021787318389      0.71664045028885
  C   -3.82636606419160      4.79870957801222      1.31541352526155
  C   -1.21032947118051      2.27619661218307      0.54724570999034
  O   -0.04463837057198      1.87392369718374      0.92226724858685
  O   -1.73348123021480      1.59980312815785     -0.43468209643078
  H   -3.72437001367727      6.32265008369479      2.81621949289322
  H   -1.47424718451566      5.69227396432373      3.60055978566848
  H   -0.28911233667662      3.79492707729902      2.53839311721375
  H   -3.63709343537639      3.18818955345232     -0.08866469863533
  H   -4.81260287168881      5.08692080476865      0.98207372005658
  N   -1.04724064988087     -1.00603810189203      1.23091769613044
  C   -0.03747770490965     -1.81597378289230      1.96443636415042
  C   1.19120837692127     -0.97346821132641      2.22587294860944
  N   1.81004395016484     -0.56857008948100      0.92801583326603
  H   -1.47400862571007     -0.34819944345906      1.87931211105519
  H   -1.80552814188966     -1.60946381735006      0.92349166083893
  H   0.21589168999557     -2.67864825556750      1.34684209351782
  H   -0.43892370241974     -2.19258707090189      2.90456649952486
  H   1.90219460216369     -1.52317326055417      2.84088375102529
  H   0.92137310045463     -0.06210520085846      2.75914964622528
  H   2.31110274785902     -1.36761212619616      0.54390878136433
  H   2.52768843063254      0.12651068099986      1.12075109344445
  C   -0.45892122862202     -2.61227632165188     -2.45594507230775
  O   -0.16006617253085     -1.45276955410398     -1.65666600296502
  H   -1.17899300513034     -2.34118848417773     -3.22390803515803
  H   -0.87747939540360     -3.38231904497839     -1.81269188570410
  H   0.46133163112093     -2.96741325270759     -2.91186367058026
  C   -0.02231803400373      1.44894146319303     -3.66826340901672
  C   1.32385238426040      2.03395522480072     -3.32316121414132
  O   1.63075603211460      1.63811075012305     -1.93840845616702
  H   -0.29327536393232      1.71422324972695     -4.68861849345634
  H   -0.81676089802291      1.85455826855521     -3.03122322383071
  H   -0.00613506521511      0.35453622337936     -3.63584084548806
  H   1.31257939576777      3.12031623816608     -3.36362278425036
  H   2.11235965449515      1.64812170657982     -3.96433474876473
  H   2.41778511282524      2.10523116536334     -1.63654477490925
