31
Coordinates from ORCA-job orca E -1565.170746335173
  Ac         -1.01297358392801     -0.09373081284179     -0.37740082403599
  C           2.48994526960695     -0.70959420339314     -0.78001769943570
  C           1.73776432474813     -1.68365634653320     -1.71706118177882
  O           2.40841317217763     -2.48490568329748     -2.36495011917975
  O           0.45111863020882     -1.58720155120421     -1.69252331468092
  N           1.72396874625880      0.52233624617313     -0.49351742619133
  H           3.48674260291473     -0.51915288716966     -1.20083215176556
  H           2.62169757666825     -1.24550796844527      0.16880249305577
  H           1.82205360275083      1.19326171216743     -1.24951918243973
  H           2.05476228620369      0.96309157583397      0.35864312554438
  C           0.33190470207536     -1.03537106214990      2.00603655030073
  N           0.92658516936363     -1.00082303828488      3.01270285130973
  C          -2.74284188748363      3.17732138922852      3.09178089143816
  P          -1.58144276648304      1.78555991593541      2.86651858261126
  O          -1.06265479165459      1.76657320778378      1.44120329098462
  C          -2.49483872652333      0.30190363990827      3.36384535944770
  C          -0.25354070391220      2.02457277994898      4.08160128958754
  H          -3.09157634183861      3.24798957701791      4.12723455378138
  H          -3.60006703469099      3.02367639947644      2.42843484516230
  H          -2.24496364171344      4.10964848923614      2.80815228583838
  H          -3.02724263638123      0.47590643011227      4.30545215552733
  H          -1.78106239619265     -0.52031969898046      3.47930473106016
  H          -3.19579165813650      0.04389227366193      2.55918204166413
  H          -0.65525650523208      2.08053093318458      5.09905703810855
  H           0.28745660593866      2.94750356355485      3.84896321727732
  H           0.42508936368133      1.16633838930321      3.99612617903107
  O          -3.09372537755603     -0.16457511063274     -2.38518210238298
  H          -2.74337892115036      0.73905644279292     -2.47973899962952
  H          -3.60336612640495     -0.16204312498596     -1.55420197192967
  F          -3.24014463439351     -0.46980768353020      0.34203249457473
  F          -1.14201715211350      1.73093587348178     -1.78764559443803
