18
Coordinates from ORCA-job orca E -1394.904217114914
  Dy  -0.13354032803779      0.81657224725089      1.04279375529495
  C   4.74305507640012     -0.27365439181445     -0.37532245496037
  C   4.45830394090085     -0.11954802461994      0.97236085917555
  C   3.17343494403649      0.22627834329770      1.34512363114912
  N   2.19854512430919      0.42011552418258      0.44791313143495
  C   2.47713288687892      0.26889208675621     -0.85320858620152
  C   3.73550663386795     -0.07538543456792     -1.30556999362329
  H   5.73736402288950     -0.55146201153140     -0.69703562829635
  H   5.21359778452660     -0.27187978699203      1.72870575230634
  H   2.89420045435784      0.34124257524596      2.38425922969981
  H   1.65577063191413      0.40799047759998     -1.54489226606892
  H   3.91021823248859     -0.19450459871262     -2.36425331512596
  C   -0.72122664526164     -0.80734180815371     -0.61532154820854
  N   -0.81429198877949     -1.53624884318237     -1.50866152388663
  C   -0.72513934344090      0.35577359497223      3.68936024318860
  N   0.36705437803503      0.31980244348149      3.26242516320099
  O   -0.41971872881883      2.66035898205216      0.33495432722560
  H   -0.51756707626666      3.56889862473519      0.06526922369566
