4
Coordinates from ORCA-job orca E -1001.043725432726
  Fm  0.42087903158664     -0.05410696443698     -0.12924064753466
  Be  -1.33336830500164     -1.33338599707604     -1.97242045638801
  O   -0.52910461815407      1.70557203337704      0.12794350125207
  O   2.03808389156907      0.50381092813598      0.53711760267060
