33
Coordinates from ORCA-job orca E -1457.930993109535
  Gd  0.40415284182101     -0.20478243340406     -0.05360558182482
  N   0.35133939857070      0.42736563512190     -2.47615902354788
  C   -0.81532046804408      1.31330499299853     -2.73527797035904
  C   -2.01605212037969      0.88080786577442     -1.90767819355882
  N   -1.76668087412905      0.94976925081639     -0.44660693494685
  C   -1.88306952452681      2.29146181806906      0.17463246798331
  C   -0.53194713273412      2.94379411853286      0.43004244150913
  N   0.32028959145096      2.05207047044082      1.25471450205020
  H   1.18207313228600      0.82292923046654     -2.90810981958993
  H   0.19487689193586     -0.46468600150485     -2.94428453748546
  H   -1.09284361951595      1.28491390931327     -3.78879016813064
  H   -0.52328542763357      2.33744029175620     -2.50817270864631
  H   -2.27126374801659     -0.15293347885801     -2.14112341202803
  H   -2.87251060682682      1.50442765707058     -2.17019423959612
  H   -2.43103917215313      0.31885884103783     -0.00913381554132
  H   -2.41026989506486      2.17729335000257      1.12280973643095
  H   -2.49175933793648      2.94637583103057     -0.45091611922497
  H   -0.69394841223303      3.90913171132042      0.91022006008847
  H   -0.00495797074713      3.13953318509628     -0.50494040188757
  H   -0.08119319483646      1.97812454312443      2.18674614905501
  H   1.22248779986367      2.49727881829842      1.40263318899284
  C   3.47976509377069     -0.51977935632829     -0.65899201550682
  C   3.53024928906792     -1.35926873776990      0.59433675005530
  O   2.18479495078083     -1.35775481034090      1.16155112016736
  H   4.46400492683797     -0.45918838546457     -1.11971819363234
  H   3.18593369631508      0.51459893196046     -0.43799609712905
  H   2.82014341335841     -0.96898110360524     -1.41164722698347
  H   4.21781096923386     -0.94325069816023      1.32738364391201
  H   3.81346849881224     -2.38512931890219      0.36971791756514
  H   2.14240819171901     -1.98311507549522      1.89297014654162
  F   -0.76480120393825     -1.74270300224790     -0.59107258337160
  C   -0.94795702087295     -1.05761074509101      2.34906598777161
  O   -1.53079895623525     -1.52949730505926      3.17509493086807
