35
Coordinates from ORCA-job orca E -1903.257914884471
  Yb  0.77633202057075     -0.65509606097071      0.49010110328663
  N   2.24285784423956      0.90063641041183     -0.90408831444770
  C   1.41065693432992      1.37392204317443     -2.03731205366606
  C   0.10162126418117      1.96261237976750     -1.53161232666625
  N   -0.69913929038258      1.00586633164216     -0.75009583770492
  C   -1.77230728238596      0.30960266831636     -1.47796737300614
  C   -1.34316112306218     -1.04132922981105     -2.03033184740899
  N   -0.90385700600750     -1.93853947926313     -0.93348113765138
  H   3.11821102790877      0.53356104158121     -1.26313957631675
  H   2.51071730457821      1.70154370666558     -0.33738322062811
  H   1.92937542012899      2.12656378488128     -2.63389620235689
  H   1.22118026427360      0.52228170638967     -2.69158100350168
  H   0.32955957523633      2.81438132866087     -0.88763451195115
  H   -0.46470576852198      2.35374936196990     -2.38130426604607
  H   -1.10319253292992      1.48436783396023      0.04515713427778
  H   -2.59874314097930      0.15389856464896     -0.78160052834920
  H   -2.16050838178734      0.92179593635121     -2.29684794842001
  H   -2.17249898299263     -1.47064490126439     -2.59533329069678
  H   -0.50993648156026     -0.92697659687940     -2.72437932366574
  H   -1.70580706082291     -2.15039602563375     -0.34470926078202
  H   -0.62599953912220     -2.83284472405815     -1.32432855044407
  C   -0.49779676410197      0.29450528244172      7.20968079618223
  C   0.43675510749960     -0.65191410900317      6.81028678042599
  C   0.69586034892672     -0.84069313420748      5.46314795922579
  C   0.01734739954063     -0.07969234244088      4.51585641101074
  C   -0.91879349158778      0.86862496245633      4.91716106001383
  C   -1.17537791925338      1.05450904327476      6.26512161073718
  C   0.29490771435546     -0.28426599112526      3.07388224079510
  O   1.14785981154983     -1.15342994985464      2.70883187060697
  O   -0.32457330614706      0.41222637711499      2.19997860882649
  H   -0.69921226119289      0.44049053576489      8.26225681485034
  H   0.96112329017657     -1.24079350143029      7.54987272112883
  H   1.41863627509651     -1.57197447572712      5.13093800143649
  H   -1.43546276210740      1.44993449181443      4.16700559674370
  H   -1.90182850764739      1.78981673038112      6.58194786416175
