37
Coordinates from ORCA-job orca E -3720.830910977999
  Er  0.99031704880039      0.89910955926407     -0.43345936672856
  S   3.12057277084413     -0.72804051417660      0.03906821370479
  C   2.18494855965401     -2.01628840940796      0.55611407984315
  N   1.51387856757595     -2.89260337709406      0.91507349671385
  F   -0.81130976918433     -3.53520212402676     -1.25202360794563
  P   0.16749702729645     -2.53370296995587     -1.96849917183500
  F   -0.77862028244600     -2.21629567582284     -3.19211368149303
  F   -0.28433047984941     -1.24054118760605     -1.09145068281478
  C   -3.68255534570771      2.53926141650631     -2.13107760879526
  C   -2.97946234997922      1.61341486277341     -2.88345230527568
  C   -1.72996550494786      1.21024921763033     -2.44971239900784
  N   -1.17151757846087      1.68132766059211     -1.32707121534128
  C   -1.85682457768313      2.57700062057937     -0.60241727771697
  C   -3.10983121745585      3.03014061415837     -0.96872273225100
  H   -4.66109995235029      2.87546031665372     -2.44604330147180
  H   -3.38395293269279      1.20345308750769     -3.79701624293391
  H   -1.14463338616000      0.49600313811578     -3.01178006990900
  H   -1.36752739835070      2.94393123171995      0.29120675057448
  H   -3.61669184371111      3.75797470912775     -0.35243570343213
  S   2.66995938556571      2.36748214261475     -2.20100720986919
  C   1.88801488170301      1.06981527444730     -2.83315941343700
  N   1.20205072582401      0.13162636682274     -2.98911304697098
  I   1.44082798539367      3.19258974701571      1.35914566461964
  C   -1.13110566358041      0.96308893186345      3.61213484237704
  P   -0.17487151310903     -0.26746569604154      2.73026838253644
  O   -0.12126627151038      0.08131608001189      1.25199365883803
  C   -0.95794873680037     -1.85651506561346      2.95811663799202
  C   1.44291555461134     -0.32793954112777      3.48463534082973
  H   -1.18696851300786      0.72258555687346      4.67327796194270
  H   -2.13717813831813      1.00155375701604      3.19574273213406
  H   -0.64850279748598      1.93115070993621      3.47627051805760
  H   -1.01141144867259     -2.10980270006590      4.01671250803694
  H   -0.36967801789125     -2.60389555514384      2.42454517717837
  H   -1.96321216670777     -1.82337644299559      2.53952782013469
  H   1.34614040907159     -0.50552141901227      4.55582206386903
  H   1.94596651654249      0.62361928328413      3.31179900070045
  H   2.02057645318066     -1.13166360642434      3.03160018714578
