58
Coordinates from ORCA-job orca E -3736.355375037665
  Lu  -0.07497303250758      0.32107425604060      1.67157469302227
  C   6.41525347214912     -1.01790922483849      3.55947729394282
  C   5.14349681172424     -0.85282732260503      4.09398897355846
  C   4.12060582391908     -0.32331116814559      3.31814428296046
  C   4.37300270650564      0.03835850124424      1.99935736006129
  C   5.64270816764027     -0.13228559904075      1.46272652563760
  C   6.66506456930119     -0.65580529215809      2.24086248546327
  C   3.24108721407717      0.55404898488282      1.13369601568874
  O   2.14020733436843      0.72406753275736      1.72903650988263
  O   3.45968413066133      0.74912045438919     -0.07546660982643
  H   7.21000905081779     -1.43545831987586      4.16694447521244
  H   4.94163024713795     -1.14729422880462      5.11650758057705
  H   3.11304809029506     -0.21418376670993      3.70347997861492
  H   5.79706587307501      0.13617742471621      0.42617471464424
  H   7.65411007833682     -0.79189120526941      1.81922786744547
  O   -0.35527523035782      2.44736339329513      2.74303434851244
  S   -1.18609198316094      3.06766962672098      1.65453019440750
  O   -2.72561241656363      2.67440187349444      1.98612294719444
  O   -0.85856383547425      2.22930013684866      0.43917303303558
  Cl  0.43545968044404     -0.84944552395230      3.95192057770378
  C   4.00936407590210     -3.66686460850695     -0.02645767810481
  C   3.27880044571715     -3.78157557600406     -1.20303255911854
  C   1.95320250403530     -3.37567958311801     -1.23692648701350
  C   1.34887582326295     -2.84161506987887     -0.10413712838475
  C   2.08009030901197     -2.73560067104732      1.07450352619754
  C   3.40609926751228     -3.14985697808867      1.11139603152598
  C   -0.09161486149660     -2.35614570288178     -0.19123349841472
  O   -0.75582154619273     -2.66848155550392     -1.17860742012920
  O   -0.49622788605984     -1.64575732581666      0.79054177461494
  H   5.04999126429451     -3.96856084106080      0.00156889304189
  H   3.74789319372488     -4.17827007482352     -2.09633755814364
  H   1.35801935919800     -3.45172592913169     -2.13738242949368
  H   1.61016961988447     -2.32625902527340      1.96201971601509
  H   3.97439613792685     -3.04607336846513      2.02775396412000
  C   0.49908583181225      1.84575209445795     -2.42908571270817
  C   0.21851247250676      0.47590566497394     -1.83933018224930
  O   0.85796092144902      0.30491836590933     -0.58520896016996
  H   -0.01302306933393      1.95572726050216     -3.38839188440211
  H   1.57102823287400      1.98105067673624     -2.59244771584621
  H   0.14516113566294      2.61277934545696     -1.74289594668951
  H   0.53635723202104     -0.32167280158826     -2.51988776044751
  H   -0.84825975479734      0.34658291295806     -1.66279587050219
  H   1.80479520631833      0.56819063711240     -0.60891374596219
  C   -4.80292490047771      0.85986308042150     -2.15889501780384
  C   -3.91645297241138     -0.08806085786869     -1.66688582772624
  C   -3.39024789682410      0.04134916213757     -0.38728132478300
  C   -3.74047193196603      1.12690416683963      0.40277012788917
  C   -4.62846433368149      2.07555597373584     -0.08900261686999
  C   -5.16012354739442      1.94306463004142     -1.36344890233740
  C   -3.15665064344060      1.23955106683943      1.81210713770378
  O   -2.20238892622816      0.38935337389374      2.08250770181124
  O   -4.24093440621934      1.12796160546621      2.71362877993755
  H   -5.20896951014702      0.76152791840482     -3.15929294619844
  H   -3.61611772902173     -0.93267893986905     -2.27493865098096
  H   -2.69415837435363     -0.69484199221216     -0.00258024935629
  H   -4.88499125902441      2.92397773484440      0.53175118066479
  H   -5.84710984456858      2.69130498653220     -1.74295687925925
  H   -3.80796639186506      0.79792971088571      3.50899287183417
