5
Coordinates from ORCA-job orca E -11006.453827691605
  Eu  0.03956924521404     -1.14047171195419      0.57837572564335
  Br  1.63701187240563      0.84405459095786     -0.61907009122491
  Br  1.14463409211491     -3.49230455523213      1.10947252551981
  Br  -0.27920381155380     -0.66514993955759     -2.18488293284670
  Br  -1.84752139818077     -0.19316838421394      2.18816477290845
