4
Coordinates from ORCA-job orca E -1358.965494374980
  Pa  -0.09344846488283      0.24728812032258      1.10221960827199
  In  -0.42727380277556     -0.98591697932940     -2.09231759714833
  Cl  -1.03094259292151      2.08663624542488     -0.18669124216808
  Te  2.14815486057990     -0.52611738641806     -0.25981076895558
