7
Coordinates from ORCA-job orca E -3846.402645486286
  Tm  -0.00045492867353     -0.00020538910371     -0.00016067943397
  Cl  0.70001177580949      0.43563375967226      2.45036452309935
  Cl  0.43576261526848      0.69921224669542     -2.45103521603596
  Cl  -0.70275167083617     -2.44682034982241     -0.43814650953235
  Cl  -0.43110922073880      2.44478065356504     -0.70879027645652
  Cl  -2.44652829506283     -0.70252664551959      0.44068177010442
  Cl  2.44507972423334     -0.43008427548702      0.70707638825506
