64
Coordinates from ORCA-job orca E -2430.923559275973
  Pr  -0.22989783476443      0.11964417249185     -0.03533174324885
  N   1.17916734557412     -2.06708153320595     -0.75786460705936
  C   0.77494218397887     -3.25464857549689     -0.29911791280339
  C   1.47941073510279     -4.42711241787338     -0.50661069416571
  C   2.65748667935472     -4.37144296792299     -1.22695175159604
  C   3.08274380179887     -3.14696593973813     -1.71108799409731
  C   2.32532845219053     -2.01232984983975     -1.45372498613045
  C   2.73419249830508     -0.67865062631101     -1.96697176739383
  C   4.01069194903126     -0.43651348197075     -2.46010298088106
  C   4.31186043559520      0.81209206939170     -2.97493085963314
  C   3.32502468848690      1.78202230885875     -2.99599886391694
  C   2.09133654943019      1.46841443663418     -2.45468818423967
  N   1.79975844152223      0.27741016321789     -1.93407294570175
  H   -0.15617759231679     -3.25555527092064      0.24318051063591
  H   1.09645149963718     -5.35873290375913     -0.11710128096055
  H   3.23475624306571     -5.26483600974270     -1.41988279488858
  H   3.98510390595829     -3.08421110523162     -2.29824650020743
  H   4.76828409748061     -1.20373841955621     -2.43185077098858
  H   5.30147002527669      1.01990629165457     -3.35700961812027
  H   3.50457078929915      2.76510027629523     -3.40533740142865
  H   1.29905389407411      2.20303422473229     -2.42850810701101
  N   -2.60114004734319      0.88748961607131     -0.43298447770113
  C   -3.16549760093635      0.79235902922209     -1.78653043658065
  C   -2.06736354901084      0.97479075927031     -2.81011145205901
  N   -1.01253920213973     -0.00855208531414     -2.51438439549482
  H   -3.12053815199569      0.30319945930345      0.21206155925717
  H   -2.59564601494214      1.83186447488231     -0.04825967345813
  H   -3.95145879799501      1.53498235132415     -1.93157278797134
  H   -3.60794499592880     -0.19672474917480     -1.89489576559258
  H   -1.63357679920936      1.97204865832842     -2.72715717033924
  H   -2.47019328841246      0.86176730820380     -3.81852948450484
  H   -0.23693225459567      0.07685014939991     -3.15830338582607
  H   -1.38003952238687     -0.95244034311391     -2.59373426122914
  N   -1.39211917588959      2.33101443580397      2.18067339520389
  O   -2.23469005348559      2.93454090902267      1.52594975160489
  O   -1.15861599724201      1.07237191532863      1.87327955289455
  O   -0.76990844381820      2.80112229243358      3.10137571317520
  C   -2.69702866591070     -2.47182077476486     -0.36857237344370
  N   -1.81942632157406     -1.69787732013810     -0.36479445213818
  C   1.56811447534466      3.64160302406841      0.49854314432938
  C   0.29527881318533      3.44802055835144     -0.29744674292180
  O   -0.01516987066700      2.06580871503378     -0.45470397658008
  H   1.77866937863544      4.70765713157528      0.57991407715476
  H   2.41304716215528      3.15248184999085      0.01540807006662
  H   1.46114112507185      3.23690482242665      1.50364280802598
  H   0.38673183740073      3.87284866988226     -1.30182632830274
  H   -0.55481653271788      3.93163812250991      0.18538588852280
  C   -2.40025637847791     -1.54694329253434      3.23213298387304
  P   -0.61666168058325     -1.64550991879670      3.14873617889093
  O   -0.08016793430419     -1.32179210077909      1.75945742244160
  C   0.08102194361365     -0.56717742670695      4.39117996680866
  C   -0.16288565305712     -3.32759262165990      3.56365320773060
  H   -2.71077484871834     -0.51322211363384      3.09574539200341
  H   -2.75062267719849     -1.90671744264165      4.19921220535146
  H   -2.82379115840213     -2.16069226264330      2.43689880598295
  H   -0.32550218381933     -0.80664649936918      5.37353533387115
  H   -0.15008689439853      0.46665570487838      4.13734064191127
  H   1.16256957257597     -0.70150201117643      4.41031484914396
  H   -0.47946193354764     -3.57435223074776      4.57636676218383
  H   0.91862836337090     -3.43408738665830      3.48623338292233
  H   -0.64365322147145     -4.01059960729317      2.86387947867178
  N   1.85010085500149      0.41542550976016      0.83319663268490
  N   2.45162278904473     -0.47915005620411      1.39073893894660
  N   3.03192474669773     -1.28865006542818      1.92286227432635
