31
Coordinates from ORCA-job orca E -2692.402980064655
  Lu  0.25065339690350     -0.84412169119863      0.13760636985523
  C   -1.07926064773772      0.82350379274517     -2.56837609063675
  O   -0.41245686951916     -0.32564342885414     -2.01825980927341
  H   -2.10307133586843      0.56873421335411     -2.83675440605655
  H   -0.53943826194237      1.18277654256662     -3.44248287945202
  H   -1.07613749670716      1.57611143593802     -1.78692315567428
  H   -0.39466088949375     -1.06919670043468     -2.63064990565029
  I   0.57574097732453     -3.48588739832386     -1.20594489165790
  C   -3.67637429379404     -0.25415401738764      0.79321054806726
  C   -2.80121821656364     -1.22371747825079      1.54664372478258
  O   -1.75686924452853     -1.75435735359234      0.67420549773297
  H   -4.43753719081263      0.14356327992391      1.46420697665919
  H   -4.17520167806293     -0.73414897374424     -0.05037719922406
  H   -3.07553781985433      0.58418371356743      0.44235826384320
  H   -3.35577567860183     -2.07203803309606      1.94508928206767
  H   -2.27544080199227     -0.71820499513126      2.35126610376836
  H   -2.03164782881906     -2.55868341656818      0.22515785861570
  O   -0.25242903470133      1.20174965568196      0.35859967990664
  S   0.00821010089246      1.30557836870494      1.94147833252233
  O   0.51098574517103     -0.19906645280524      2.11776656382642
  O   -1.29880154290997      1.40726453855225      2.57862213446098
  C   4.82689952716968     -0.66982585692668     -0.94860483401876
  C   3.52624530274712     -1.10523258993774     -0.75009266482734
  N   2.56386609797058     -0.25257703128983     -0.39186858326740
  C   2.91048753374658      1.02872023597260     -0.23575544669990
  C   4.21614580589774      1.44326266964467     -0.44318747700353
  N   5.17946390164557      0.60137024648037     -0.79919447391611
  H   5.59941111095740     -1.37067037427406     -1.23629775198581
  H   3.24467274810273     -2.14103743372695     -0.88302359299594
  H   2.12980515743109      1.71899351387865      0.05403589736329
  H   4.48527142594913      2.48335101853166     -0.31515407113170
