5
Coordinates from ORCA-job orca E -1707.923962979426
  Pr  0.58342007476169     -1.01626946163284      0.22183946347982
  I   2.65634389940706      1.01106990994159      0.09740651350057
  I   1.34120794875503     -3.66212389595781      1.11478136786959
  I   -1.75653939247892     -0.76521638697896     -1.76289614178006
  I   -2.12994253044486     -0.21450016537197      1.40092879693008
