6
Coordinates from ORCA-job orca E -3135.848069289021
  Fm  -0.14668435846615     -0.23108819907303      0.01570031738969
  Cl  0.77984515195500      0.39753470155208      2.37042726630445
  Cl  0.00468781834765      0.89819731792712     -2.32708795788355
  Cl  -1.33643903642652     -2.33947296146246     -0.03542643261076
  Cl  2.40784824381517     -0.52715769218804      0.45084198230941
  Cl  -1.70924781922514      1.80198683324431     -0.47444517550925
