38
Coordinates from ORCA-job orca E -4167.261942096612
  La  -0.56578102997081     -0.11610050735419      0.52281150703898
  Br  -2.71770180975650      0.44522896538150      2.65313423624788
  N   -2.65098546488677     -2.47480802044854     -1.20984209171281
  O   -2.84239741155029     -3.68900515342463     -1.25846900966732
  O   -2.25069543042048     -1.95553037814420     -0.12357998308389
  O   -2.84299195012309     -1.74815398333668     -2.19824866510584
  F   0.80316242280551     -1.26930968249320      1.86991839255823
  C   1.81404986716789     -4.36000499241854     -2.26835116173607
  C   2.03621463353817     -3.06008051287055     -2.69084047605528
  C   1.37380939629061     -2.02375485618084     -2.04783258956212
  N   0.52621240220449     -2.23300239740163     -1.04025324583840
  C   0.31385150524931     -3.48490053907996     -0.63776095363536
  C   0.93594998883937     -4.57831034326480     -1.21998454934792
  H   2.31511742634507     -5.19119266189722     -2.75043593127482
  H   2.71089255164737     -2.83740578711666     -3.50606564111280
  H   1.52448920351739     -0.98860494229741     -2.32840215968770
  H   -0.39369684104375     -3.60906665879892      0.17106677261188
  H   0.72019480065299     -5.57419608503378     -0.85877626730992
  O   0.97810200690334      0.81132667280580     -0.98213372938357
  S   1.27069932888095      1.62759880062679     -2.30849159773663
  O   -0.12207930977046      2.04845895324585     -2.76228629274570
  O   2.01475796527396      2.84384591998492     -1.87179631531580
  O   -1.99150112679257      0.86846537921179     -1.41088745182024
  H   -1.31646704407755      1.30966041766913     -2.01952304204008
  H   -2.37861370507040      0.10259017730277     -1.86255636709457
  C   1.02582135063691      3.10318722565009      1.14824492458291
  C   0.75371173101061      4.45216627544861      0.48061438281634
  C   -0.62532102840503      4.24958064695986     -0.14973758075629
  C   -1.29349889102049      3.31212744933805      0.83766445913775
  O   -0.24356119055518      2.41690755560645      1.23357265362206
  H   1.42129365131705      3.20485947652530      2.16255020862029
  H   1.68363168576914      2.49525148324705      0.53183050854302
  H   1.51071403951851      4.65178868253655     -0.27512068062343
  H   0.73055105699631      5.25908307367479      1.21947114395141
  H   -0.51472985585417      3.75276746644416     -1.11510084741043
  H   -1.17989551560247      5.18149814699108     -0.27605326207941
  H   -2.10226323848504      2.71904378156084      0.41585794309692
  H   -1.66914617117981      3.83269095135037      1.72629275930896
