14
Coordinates from ORCA-job orca E -1740.044940352509
  Tb  -0.61427338507073      0.59718182055644      0.80384678631527
  C   2.66121996905623      1.31385167319117     -0.28138804576612
  O   1.86180024109876      0.18342578642109      0.04459884205214
  H   3.69358538596795      1.16881904057723      0.04609624861740
  H   2.25172345740103      2.22673529471095      0.15446836193984
  H   2.65225838594529      1.41145504520308     -1.36506078618459
  H   1.90222693696959      0.00614352058770      1.00423360182378
  O   -3.88657453608083      0.04727807818078     -0.95357722414519
  S   -2.96559064780975     -0.78598045462347     -0.17477606108016
  O   -1.51924713983586     -0.61366746326264     -0.80617645394513
  O   -2.68560197727311     -0.02813103850092      1.19678126622395
  F   0.72710575217261     -0.14500602722781      2.30480558412970
  O   -0.27093366164136      2.65619524998834      0.55496728163953
  H   -0.64829878089984      3.44849947419802      0.18238059837959
