46
Coordinates from ORCA-job orca E -2196.716583207186
  Dy  0.67755439381346     -0.80665388598675      0.44447040244556
  N   -1.76559338976544     -1.26204460429276      0.56380847662124
  C   -2.57390794160893     -0.01434834247579      0.49868777901920
  C   -1.95219248558816      0.96416091025690     -0.47952196420193
  N   -0.59520472077989      1.34224237304045     -0.02118598915739
  C   0.11884248506203      2.23876400416763     -0.96389073389622
  C   0.99103125604630      1.43784067704705     -1.91256176301569
  N   1.94383108768748      0.61771710017322     -1.12327902542227
  H   -2.03679434695441     -1.88378093582458     -0.19467216563960
  H   -2.00475623918385     -1.77936140351665      1.40514725670188
  H   -2.58949735634418      0.42436905297670      1.49726205395916
  H   -3.60615317393420     -0.22100028993413      0.21863841721638
  H   -2.59137393655061      1.84362604258372     -0.58333470633040
  H   -1.87246162206109      0.51398915079363     -1.47261858881522
  H   -0.71231496336278      1.83630773317227      0.85843684092413
  H   0.74489185264241      2.91597352288633     -0.38017358278993
  H   -0.58081714661490      2.85965258063097     -1.52645766215670
  H   1.50357852648917      2.10677037739792     -2.60362515593340
  H   0.38525282433582      0.75734404513443     -2.51507563672880
  H   2.62811005362069      1.22068363811837     -0.67080508992427
  H   2.49321235123779      0.02918410297922     -1.74474472238000
  C   0.78030937985019     -3.89578814948215     -3.79610164592982
  C   1.74735250701520     -3.96199809979050     -2.80587319264078
  C   1.64711260800287     -3.11721831670049     -1.71694500587218
  N   0.64952984494711     -2.22655088119419     -1.57669968582705
  C   -0.27934619041934     -2.17187876146843     -2.54594519535928
  C   -0.25503480044100     -2.98012276586151     -3.66285014666353
  H   0.83005969954850     -4.54647954138868     -4.65803863119932
  H   2.57009695740842     -4.65889678540398     -2.86719388784674
  H   2.38758216508294     -3.14992664407468     -0.92775018526034
  H   -1.07618663216163     -1.44697321942060     -2.41985122760343
  H   -1.03049792945548     -2.89441122956542     -4.40966969656978
  C   0.68375377631587      1.33096002848271      5.23444660629636
  C   1.30762847256067      1.92043902016366      4.14321913598120
  C   1.16261469844518      1.32778448080094      2.90640895503005
  N   0.44686482767132      0.20989329006457      2.70361052238651
  C   -0.14348796338758     -0.35447136246713      3.76725050429021
  C   -0.05455220649815      0.17428498703799      5.04107885979326
  H   0.77787872399261      1.76460632539503      6.22024887225489
  H   1.90159750832652      2.81605375418790      4.24950706798203
  H   1.65421422683042      1.75902755304992      2.03850792429189
  H   -0.68599443593051     -1.27397848166196      3.59117963113571
  H   -0.54772552761904     -0.32200385071982      5.86376213619334
  S   0.90366539901598     -3.34015480740425      1.94994883206573
  C   2.18470457455484     -2.37875628504344      1.64132149720607
  N   2.84782280815728     -1.49617610686352      1.22422351536927
