27
Coordinates from ORCA-job orca E -2217.290392767196
  Tb  0.24919611715524     -0.59074592385261     -0.89986362580307
  Cl  0.11987638629453     -0.32075321065462     -3.33270220874091
  O   -1.98525429749278     -1.37505909368428     -0.56973366578716
  H   -2.68834497486637     -1.34414378189876     -1.22725637837324
  H   -2.11420476907786     -2.19693898325225     -0.04178886786083
  S   -1.36336636048561     -4.00777337644720      1.18525912422665
  C   -0.11340744835836     -3.16725304102524      0.64911546361662
  N   0.74478062807926     -2.47246648101036      0.21135214289561
  C   -1.42754541215425      1.50501883876312      1.20321717089828
  C   -1.58293667905712      3.00205753250564      1.39208092074498
  C   -1.47032268496372      3.53146780568646     -0.03740877277512
  C   -0.36287578135132      2.67230043019333     -0.60917236803154
  O   -0.55087478954381      1.36383228911959      0.03218339322421
  H   -2.36959930805615      1.01476341924847      0.96358085826605
  H   -0.95086615943890      0.99838000179491      2.03970656497787
  H   -0.77696499221938      3.39587835736773      2.01096822602256
  H   -2.52972351073542      3.24903945011130      1.86543406041655
  H   -1.22359884508228      4.58925479923511     -0.08142882346570
  H   -2.39876298612106      3.37156430000343     -0.58560602425328
  H   0.62586859371690      3.03591064772653     -0.33014892435224
  H   -0.41386426285454      2.52272588873111     -1.68615832596292
  C   5.08460868783925      0.58450228721494     -0.23686779486515
  C   3.64997060859607      0.41697149782324     -0.36655768667320
  N   2.51739570354693      0.27936436107875     -0.47167236285354
  H   5.29736074817949      1.30394749971441      0.55129222300901
  H   5.49253313395810      0.94269161125532     -1.18008807172489
  H   5.53412265449302     -0.37443712574849      0.01436375322441
