50
Coordinates from ORCA-job orca E -3065.849624467802
  Yb  -0.08656170862290      0.39403130175215     -0.00349876983426
  C   -0.90539708358509     -6.74293498791644     -0.90861708519100
  C   -1.57801397491635     -5.65102308391165     -0.37555563974317
  C   -0.96818398180349     -4.40579363095246     -0.33509968167952
  C   0.31579166947678     -4.25785434031292     -0.84753256963125
  C   0.98488903019016     -5.34348666224998     -1.40011060249561
  C   0.37737737265969     -6.59020547148681     -1.42073060615077
  C   0.93098383914115     -2.89420007648538     -0.79143525400000
  O   0.49130614563648     -2.04906204791629     -0.04117046103666
  O   1.94493673492846     -2.71771841208760     -1.60978511862980
  H   -1.38418505098877     -7.71482630753116     -0.93331603884896
  H   -2.58564004086365     -5.76148008012885      0.00333326206573
  H   -1.47879763021412     -3.53326300801290      0.05511076548000
  H   1.97537637379251     -5.19780380670934     -1.80867254390584
  H   0.89981219151618     -7.44077055550495     -1.84143250224648
  H   2.21634189980017     -1.73221474977391     -1.55757143004285
  N   0.44892714694994      0.25457314765729      2.95669775951022
  O   0.62163858017251      0.29767677374930      4.17797450316802
  O   1.06736864084948      1.03704087074908      2.18929459891943
  O   -0.35904585090394     -0.55269358743067      2.44361357150349
  C   -0.19984450028171      6.20761067710942     -4.18622055696282
  C   0.45552058888849      6.26052362498548     -2.96215860835835
  C   0.46367794353913      5.14991044593995     -2.12935610585092
  C   -0.18074498775682      3.97992753058292     -2.51135852899229
  C   -0.83268034751023      3.92977745233816     -3.73737353945148
  C   -0.84394143337828      5.03846513040037     -4.57232727326835
  C   -0.17670019068138      2.76322498589325     -1.59591266978338
  O   -0.74999023707408      1.73168395348065     -2.01228190524011
  O   0.39217398855957      2.87998649494910     -0.48526496763375
  H   -0.20642508918146      7.07356276110492     -4.83811992328462
  H   0.96276477010486      7.16911355833729     -2.65921612774686
  H   0.96770665418968      5.15637659010930     -1.17214426782348
  H   -1.32086240808687      3.00309392954192     -4.00772615414798
  H   -1.35389278150764      4.99229896540301     -5.52751330040273
  Cl  2.45365662520300      0.14492864268456     -1.43123358382318
  C   -1.48598429582987      3.05752533208832      1.93120181091532
  C   -1.63074247630191      2.77573046702974      3.43030853755013
  C   -2.58990447173694      1.56407282738057      3.48396519610462
  C   -2.89109112903104      1.27272932485484      2.00970137795439
  O   -1.79455727234950      1.82690678769665      1.28989179808361
  H   -0.49046836789079      3.35074984472075      1.61521242275435
  H   -2.20914729231963      3.81759750223634      1.60201171629247
  H   -2.02173826463091      3.64522645925021      3.96237397173842
  H   -0.66614528167409      2.51539649020738      3.86162562928279
  H   -3.50394392171814      1.77760229645979      4.04126271743022
  H   -2.09530152528186      0.71053665240304      3.94245403849889
  H   -3.81216118349889      1.77707395097111      1.68675545850754
  H   -2.95535491690670      0.22010073621682      1.75450498252352
  C   -3.17438656809946     -1.54940538090770     -0.51619770160114
  N   -2.22511593097149     -0.88011931896473     -0.40186060047548
