49
Coordinates from ORCA-job orca E -2570.893783459197
  Yb  -0.09282420085972     -0.16278796319199     -0.82785635125409
  O   2.18015133850027      0.64020565395227      0.20774872298141
  H   2.29920454549557     -0.33487886160593      0.18011579452096
  H   1.71780693891652      0.82996447886004      1.03386199000768
  C   -2.78835701794005     -3.74025876915469      2.10280699343639
  C   -3.39101119908361     -3.27183260688249      0.94737002517454
  C   -2.69691256622559     -2.37069299256869      0.15803891456002
  N   -1.47065663876174     -1.93816970035714      0.45216987068517
  C   -0.89699326947142     -2.39665861577254      1.56619042323515
  C   -1.51575337198463     -3.29359833418383      2.41935135640778
  H   -3.30362570081792     -4.43832231987935      2.74870886990470
  H   -4.38519519598818     -3.58535703186327      0.66350331541542
  H   -3.14018485509898     -1.96159851116295     -0.74124175254302
  H   0.09685700913135     -2.02072687455212      1.77485253091782
  H   -1.00685612786316     -3.62761087415344      3.31186420501653
  C   1.17457698043665      2.82216977847692     -1.98054784687629
  C   1.22836801796707      4.21615680960259     -1.35302570054610
  C   0.18029041207137      4.13061042729313     -0.24340934879293
  C   -0.85996734875745      3.24082647339238     -0.88878543475374
  O   -0.09291562560284      2.24124254517819     -1.58489766717681
  H   1.95799336857078      2.17729130184410     -1.58968196217398
  H   1.21999907586373      2.84411230091619     -3.06959875242388
  H   0.94528534384850      4.97941497254075     -2.07880425888677
  H   2.22387285878880      4.45203755799666     -0.98341053039369
  H   -0.21751303146618      5.10025696654147      0.04917263453224
  H   0.58085238860617      3.63086556749120      0.63897757435732
  H   -1.46454307728629      3.79864214216650     -1.61326396028517
  H   -1.51237018110321      2.74104993273102     -0.17805058044581
  O   -2.54897639085880      0.44056573251436     -1.20669679885420
  H   -2.74793903650557      1.19535928129944     -1.76578386249620
  H   -2.96096717217442      0.64327123608402     -0.33829824068061
  O   1.76001561545347     -0.38396648736217     -2.70118138177270
  H   2.53432441528801      0.18097320724903     -2.72576258540789
  N   -0.77137735059412     -1.74096602375086     -2.76679138126937
  H   -0.08147670143424     -1.54727544377857     -3.48463912512072
  H   -1.68589052398489     -1.77911799776306     -3.19725791577694
  H   -0.56417330455513     -2.66109935395106     -2.39452232462663
  C   2.71293093365593     -3.47612433059540      0.72367373541181
  C   1.77030050759008     -3.15411340035080     -0.42811286005104
  O   1.58085518988616     -1.78459429398564     -0.58086608051260
  H   2.85607517739081     -4.55283857065594      0.83595206369341
  H   2.31548206350616     -3.08272621034490      1.66152648903728
  H   3.68564183645370     -3.01274939431995      0.55273975912700
  H   0.81072694762697     -3.66872353457894     -0.24675765772423
  H   2.18114124370844     -3.60103698346539     -1.34795386711569
  H   1.93323554938588     -1.06212116071076     -1.97595923569378
  S   -3.17078124194213      1.09301609980928      1.86215107403146
  C   -1.54209958454900      0.98857030566107      1.69442520843150
  N   -0.38862704323309      0.91084386934138      1.50625591276939
