6
Coordinates from ORCA-job orca E -3407.249450928824
  Pa  -0.91399064572277     -0.21761683358122      1.00736908425970
  H   1.04558554785350      0.40344405826863      1.54741105930806
  Al  -0.49580283258359      0.25335390888906     -2.00553986575219
  N   -0.08749503066027     -0.93357760369358     -0.62880783900179
  Te  2.24214824112395     -1.23429289509999      0.72908592723178
  Se  -1.79043528001083      1.72868936521709     -0.64950836604555
