6
Coordinates from ORCA-job orca E -13703.776338914055
  Fm  -0.14383399567010     -0.23374975017355      0.00707158944194
  Br  0.74286334348344      0.37839720586255      2.54479710092601
  Br  0.03789817589172      0.95061506117342     -2.47213040331082
  Br  -1.36406290434990     -2.49999110968159     -0.08702411790920
  Br  2.56889461392098     -0.49437186521065      0.45239745905787
  Br  -1.84174923327613      1.89910045802984     -0.44510162820580
