16
Coordinates from ORCA-job orca E -1250.075264870151
  Pr  -0.16926144793290     -0.98184566887221      1.09790298653662
  O   -0.24548889439094      0.18455413918632      2.67149877276542
  H   -0.23749669401778      0.76875375031040      3.43948153311627
  N   2.66590198760811     -0.23495697935950     -0.98215602993131
  O   1.86565679138240     -0.81275546113052     -0.28280461712145
  O   2.39526161370085      0.96428737229549     -1.30278310039580
  I   0.67540920139789      1.84703531783981     -0.61272401420102
  C   -1.93936280059655     -1.79474892227673     -1.49144480594001
  C   -3.07091761889635     -1.26729966613301     -0.64702228343167
  O   -2.47699536596821     -0.80415419043358      0.62504476710522
  H   -2.31703860034718     -2.13329304851789     -2.45517391489932
  H   -1.46324197387718     -2.67426221434282     -1.04028273405423
  H   -1.20303867330914     -1.01424876705929     -1.71911435629056
  H   -3.80127122779208     -2.03675560209885     -0.41155803878502
  H   -3.56387918118119     -0.41594501860295     -1.10897895877368
  H   -3.15883711577966     -0.43356504080460      1.20131479430056
