32
Coordinates from ORCA-job orca E -1379.820147072059
  Ce  -0.25552840733367     -0.40434262046469      0.11630422616806
  C   -2.48122717779455      0.30170622189358     -2.32049859348598
  C   -2.38383278746516      1.50974463864255     -1.38813280946953
  O   -2.96972251461341      2.53308912800144     -1.63136033895762
  O   -1.58545521005793      1.31396524967531     -0.36150204429606
  N   -2.09347586133270     -0.93464034639083     -1.62425809923485
  H   -1.76898200247396      0.47779970021010     -3.12673312572134
  H   -3.48064388519318      0.26309040858292     -2.75043094731417
  H   -1.78895912449120     -1.64816525895271     -2.27432477895371
  H   -2.87238169451793     -1.31670295100262     -1.09984911223042
  C   2.62501796787686     -3.99350052712381     -0.85086043055960
  C   1.32573969527461     -3.34929474919127     -0.85184901567868
  N   0.31464081840995     -2.80632509344430     -0.82160632342518
  H   2.52429716808502     -5.03622206209223     -0.55896174548756
  H   3.24727163438416     -3.46064990843387     -0.12935443097805
  H   3.06789902692576     -3.91275016107834     -1.84049290563039
  O   -1.45267433391010     -1.39712651097155      1.44487213503217
  H   -1.75496208735861     -1.91748285910814      2.18962736225249
  C   2.42325128372834      2.64936883519948      0.62459687054685
  C   1.58566956755403      2.20779945591911      1.80210378254025
  O   0.33081650591544      1.63760909172903      1.36744154948516
  H   3.36649560814676      3.06712107630052      0.97645396219583
  H   1.91000984153509      3.41296961828355      0.03847926053008
  H   2.64289488813321      1.80026936786982     -0.02165339908395
  H   1.36293838290160      3.03286992279620      2.47916296254574
  H   2.07754447169743      1.41709377189394      2.36005864481766
  H   -0.24889378610752      2.30810857404443      0.98168403586576
  C   2.90261675225371     -1.39037355438925      1.36471155397396
  N   1.86301349061610     -0.91081251143874      1.12162079590059
  N   0.92009133988077     -0.03164483220974     -1.79832735335896
  N   1.82643559212101     -0.64687766582605     -2.30145113810939
  N   2.66899483720980     -1.23339344892369     -2.77917054987888
