7
Coordinates from ORCA-job orca E -3313.083927230362
  Pu  0.00000154253745     -0.00000139776206     -0.00000139209225
  Cl  -0.00845205682240      0.00845187781798      2.42113994921564
  Cl  0.00845510784789     -0.00845525979811     -2.42114581934112
  Cl  0.00844065614023     -2.42141357544505     -0.00844697516962
  Cl  -0.00843831232744      2.42141044587916      0.00844553419707
  Cl  -2.42140928384272      0.00843847348661      0.00844565327763
  Cl  2.42141234646698     -0.00844056417853     -0.00844695008736
