4
Coordinates from ORCA-job orca E -1711.411307825411
  Pr  0.36740488851786      0.54048877566043     -0.07865169275256
  S   -0.84529134580477     -1.25700553566375     -1.61639057239503
  S   -1.30107231060924      2.07465479705083      0.15492817239357
  S   2.37544876789616     -0.53624803704752      0.10351409275402
