31
Coordinates from ORCA-job orca E -1911.729934277922
  Nd  0.02145561506453      0.89401790230508      0.82690331051414
  N   1.32547224200655      0.55204337919014      3.02893256242805
  C   2.57236482190076     -0.24181175507549      2.80600241443784
  C   3.10134785849264     -0.01751889130991      1.40446720750273
  N   2.11558974939062     -0.51117104181915      0.39577158176693
  H   1.58724421851184      1.50080018672686      3.29675411492666
  H   0.84756842184199      0.18682592066377      3.84892394303748
  H   2.33215149939599     -1.29526088667200      2.95274995075926
  H   3.33688712213793      0.02059386724082      3.53530481240266
  H   4.06375440470913     -0.51342167405401      1.28687015616475
  H   3.26839238763556      1.04692767199976      1.21906234171463
  H   2.07903635351471     -1.52707501463358      0.44497130601762
  H   2.48137087411200     -0.30820359416350     -0.53313024973501
  O   1.21286443105596      2.34141617648457     -0.55451068629536
  S   1.14981281808720      3.58788736295175      0.31645987552402
  O   2.40758477662050      4.16899559130671      0.66536583423593
  O   0.29206577405693      3.11189827930608      1.48040168307456
  C   -4.18041425799664     -1.22164328644643     -0.15762913231700
  P   -3.53460960971421      0.43081681182357     -0.31407007852033
  O   -2.06089458693854      0.47151295034882      0.19285600149005
  C   -3.59553163908101      0.92691374153275     -2.02426288623679
  C   -4.53339029189396      1.54544319691398      0.65294544771444
  H   -3.58605378944759     -1.91353589825121     -0.75275889870169
  H   -5.21031575632848     -1.24704879151415     -0.51456669463801
  H   -4.16440719029654     -1.53101706718687      0.88655793818617
  H   -4.62725008901626      0.90347060997072     -2.37628688494367
  H   -3.00271236938137      0.24543370506181     -2.63327353733360
  H   -3.21294941717678      1.94110169698278     -2.13402765744583
  H   -5.56323749130239      1.51962953686291      0.29583859371623
  H   -4.15628962228692      2.56319747807713      0.55792269105764
  H   -4.52000725767403      1.24818183537614      1.70085493949534
