40
Coordinates from ORCA-job orca E -4387.517838645516
  Nd  0.86184434220560     -0.40032483280254      0.58683891251983
  C   -0.36978140011874     -1.41385951234278      3.68546923144604
  O   0.09472363950833     -0.87372397680832      2.49900442198069
  H   0.03111318025438     -0.87874387169292      4.55691194251473
  H   -0.08146224762433     -2.46727283741873      3.79061448876433
  H   -1.46482540107025     -1.36646696665790      3.75109104989685
  C   -1.39388919761925     -5.35561882549261     -3.46297814964436
  C   -0.33985737630385     -4.86437061765797     -2.70561971563027
  C   -0.44605834724099     -3.63040370167104     -2.07851090734718
  C   -1.61172907964997     -2.88403171667230     -2.20750108424494
  C   -2.66728498909851     -3.38009156872029     -2.96499418584017
  C   -2.56013754530163     -4.61132275289319     -3.59223600993603
  C   -1.75985401185078     -1.53729853201256     -1.53476576758779
  O   -2.81739237644101     -0.92242400303965     -1.64011034805148
  O   -0.73297612132229     -1.12520397926520     -0.88047670488569
  H   -1.30821562026000     -6.31802271211752     -3.95210761831719
  H   0.57040157035290     -5.43987277003910     -2.59906045390055
  H   0.37340064335187     -3.24821152846980     -1.48458894387432
  H   -3.56286436642898     -2.77961479837143     -3.04612963212731
  H   -3.38446662803633     -4.99268761540943     -4.18180214048478
  Br  2.78578881857568     -2.47762387879344      0.16142510008654
  C   -2.88273716651833      2.76868457751845      0.23403122145353
  C   -2.03086675016027      1.67855882856612      0.09930717355956
  N   -0.80322582777157      1.71176507265820      0.61523324148394
  C   -0.43571090563744      2.82434464510830      1.25019212383523
  C   -1.30131636883704      3.89691792807245      1.37565381833008
  N   -2.53242057148859      3.87983970447083      0.87080074150244
  H   -3.87774286817717      2.73238000585194     -0.19134503471459
  H   -2.33289409866831      0.78202112577994     -0.43353421172416
  H   0.57196846028307      2.84256932272541      1.64503222667800
  H   -0.99065213094886      4.79496480283815      1.89508937563886
  I   2.34097408502413      1.95875131251197     -1.35664858136058
  C   4.71405839462896      0.87970406209551      1.37581758081161
  C   3.51120957516967      1.70286983860389      1.80217824534066
  O   2.32923376285935      1.31145952783664      1.16454879124615
  H   5.60411222325529      1.18328376106091      1.93204706058025
  H   4.90490640824825      1.01429127423307      0.31080555456038
  H   4.52985684642995     -0.18066933435302      1.54838983664543
  H   3.70037005141176      2.76885514730757      1.62009071177717
  H   3.35239939501529      1.58969939546273      2.88383663901916
