30
Coordinates from ORCA-job orca E -2302.561395855151
  Yb  0.05712519717232      1.86723633803829      0.78030663076005
  C   0.65079312714130      1.90008860613164      3.35902032399109
  N   -0.43495178495766      1.51250728478781      3.15919904170013
  C   3.91503661065625      0.41355993947223      1.85696482137665
  O   3.72439886366540      0.34799698106352      0.43232396600288
  P   2.25840253773580      0.02600779876164     -0.12311782428554
  O   2.51468434536506      0.02491668786411     -1.70059400823658
  C   2.47240360690116      1.27548201746063     -2.41720681808025
  O   2.18827384619548     -1.55525128254011      0.16109005937137
  C   0.99003352914190     -2.25488694775844     -0.17828676946183
  H   4.82562173917284      0.97950095875620      2.02596764130735
  H   4.02550203535244     -0.59244593841010      2.25683068469333
  H   3.08002759582359      0.91313166229139      2.35236228560705
  H   2.42119167817378      1.02166822754753     -3.47144268084372
  H   3.38526675629525      1.83782037552484     -2.22646818857689
  H   1.59478841330278      1.86167995347301     -2.13743648118317
  H   1.05351487397419     -3.23671282560484      0.28050772488186
  H   0.90573685233409     -2.36029347157936     -1.25928101224363
  H   0.10855994027216     -1.73768152171420      0.20844954187026
  F   -0.20486249843295      2.68637881991938     -1.13659484137794
  C   -3.49740006092291     -1.25556736069924      0.78910570691380
  C   -2.47515523170107     -0.40186313717152      1.17460510719529
  N   -1.85046784795605      0.36049857173022      0.27629675151210
  C   -2.25421857463331      0.28351702624031     -0.99327485494197
  C   -3.27822671309408     -0.57773441625210     -1.35764574729295
  N   -3.89902764121022     -1.35181177092698     -0.47402330838619
  H   -4.00232145569887     -1.87486916345788      1.51897459143019
  H   -2.14864195301637     -0.31096416451341      2.20326640669481
  H   -1.74924139073777      0.93159443501580     -1.70021898703415
  H   -3.60344639631462     -0.64150368345034     -2.38787976336341
