6
Coordinates from ORCA-job orca E -1024.688201058669
  Er  -0.53744618453519     -0.76881586459898     -0.09991129995259
  Li  0.91783045288563      1.00681067863472      1.70437431787454
  H   -0.45143472751783      1.15652474700136     -1.15993157495503
  H   -0.94749611244012     -2.66245222534925     -0.56855776987082
  H   1.35097057949485     -0.17209244950579      0.51592287937938
  H   -0.33241400788734      1.44002511381795     -0.39188655247549
