29
Coordinates from ORCA-job orca E -2051.099553299887
  Lu  -0.10223452120500      0.79135802794597      0.33580832228279
  N   2.16332251036461      0.17300946661844      0.53660544280899
  C   2.94298038919767      0.00412123421614     -0.53641921599228
  C   4.23997774249833     -0.46196157254019     -0.45253787312856
  C   4.73972649823991     -0.77206241323083      0.80006377026169
  C   3.93610160351500     -0.60080507521815      1.91668082414019
  C   2.64695546764300     -0.12023843128580      1.75836963390334
  C   1.72430391654628      0.10958620060487      2.90789050838994
  C   2.11402009142307     -0.05105956091447      4.22611641108645
  C   1.20100153534012      0.20379270217407      5.23900673471923
  C   -0.07677738285027      0.62230648853386      4.91456477619591
  C   -0.39583958839337      0.76649071509966      3.57783678520564
  N   0.47687289096374      0.50959509543887      2.59808861331223
  H   2.50812031744508      0.25259320771370     -1.49718637956215
  H   4.83308366063267     -0.57940963815675     -1.34655238788443
  H   5.74760080429038     -1.14615306306267      0.91206110539622
  H   4.31978371232681     -0.84609613133552      2.89395365900439
  H   3.11611866752157     -0.36125322411215      4.47528071302043
  H   1.49358472470253      0.08211047426937      6.27241351927457
  H   -0.81325552365107      0.83976279012015      5.67298857480538
  H   -1.37698393404111      1.10971237467927      3.27406378079352
  N   -0.90672763635561      3.35545100616166      0.10676411447399
  O   -0.08927476708098      2.79993821381760     -0.68037729122212
  O   -1.35718144791600      2.56404918036467      0.97825990988816
  C   -1.77782365178737     -1.73539219306975     -1.06715085160109
  O   -1.02745437059080     -0.70944004665158     -0.46152397991297
  H   -2.75449037772385     -1.36165956677684     -1.37446227932785
  H   -1.92419083923873     -2.55983790098826     -0.36880853176681
  H   -1.25892049181675     -2.11460836041537     -1.94789840856497
