4
Coordinates from ORCA-job orca E -858.824170914527
  Fm  -0.55774634844793     -1.06937045307393      1.70850447124700
  Li  -0.25408941113633     -0.40447314013518     -2.28135407361923
  Li  -0.27805984338322      2.14745223807014     -0.52402206837588
  Li  1.68638560296748      0.14828135513897     -0.33972832925189
