34
Coordinates from ORCA-job orca E -1985.715055466701
  Gd  0.26231460522274      0.50520061591009      1.51710405095172
  C   6.52498891047284     -0.13620466409861     -1.23952327331217
  C   5.40081775859826     -0.13594876280758     -2.05613611148258
  C   4.14254198082004     -0.01279336931248     -1.49528338462311
  C   4.01785827500542      0.11025448543781     -0.11237846928181
  C   5.14523044918605      0.11223091810788      0.70741449678724
  C   6.39980729007337     -0.01235481120541      0.13874549963750
  C   2.68565949876368      0.24411833086757      0.48819033438532
  O   2.53845253009259      0.38392604028641      1.74854978488119
  O   1.63288576735546      0.22002609883220     -0.24757511546921
  H   7.50743394848947     -0.23174261919611     -1.68133140058476
  H   5.50914111571018     -0.22899422925884     -3.12735835230245
  H   3.25663928184866     -0.00458908611058     -2.11376040028611
  H   5.02677847011210      0.21246537972119      1.77662637445195
  H   7.28048568374451     -0.01144121186740      0.76506202201771
  O   0.46676785333315      1.18327838011626      3.85938780435615
  H   0.10630654406966      2.05338485540555      4.10559860177535
  H   1.28011762991338      1.06944012275855      4.36290613823910
  C   -2.71018855522349     -0.61113013974541      0.41716989655546
  C   -3.02490016459863     -1.11642239802781     -0.97315342450007
  C   -2.26428925242493     -2.44190378102732     -1.00652380617878
  C   -0.97324157933249     -2.11361480599773     -0.27447576185437
  O   -1.31654641196605     -1.00989270317032      0.63664144805648
  H   -3.32023216874688     -1.09355973859220      1.18029597076558
  H   -2.76813667785373      0.47150205655141      0.52589649398472
  H   -2.64042481397120     -0.42580835522008     -1.72384706318690
  H   -4.09392000804712     -1.23677648240945     -1.12903781526664
  H   -2.07085849195584     -2.79554361334995     -2.01587291615678
  H   -2.82033221907442     -3.21292219914221     -0.47442335141586
  H   -0.19398331022871     -1.74923765346157     -0.94296746056782
  H   -0.59159929303279     -2.93412611390108      0.32856654447192
  S   -0.71945945486232      4.27688897542764      3.27930751962789
  C   -0.67037794938128      3.29215432264079      2.03544101701490
  N   -0.62923724211184      2.52413615583879      1.11994410850920
