6
Coordinates from ORCA-job orca E -846.121029522153
  Fm  -0.18071627239555     -0.95630408423375     -0.17679880911115
  Li  0.77780499917755      1.05305569466157      1.71666932255534
  H   -0.46807104207226      1.05008139396199     -1.11822097055430
  H   -1.29553823416182     -2.52103869641313     -0.62622573233107
  H   1.52753214053311      0.04321763907639      0.52948726652676
  H   -0.36100159108103      1.33098805294693     -0.32490107708558
