5
Coordinates from ORCA-job orca E -1016.576326681853
  Lr  -0.41923759767154     -0.70390330134412      0.12453077139315
  Li  2.49511385817316     -0.12927288973251      0.50627799729958
  H   1.48144918761812     -1.53227302320027      0.43722745025986
  H   -1.19988159988584     -1.22388292950231     -1.61372772602324
  H   -1.66295384823390     -1.05770785622077      1.61775150707065
