6
Coordinates from ORCA-job orca E -641.647918938700
  Cm  0.12435133051355      0.21067758296415     -0.00162717145918
  H   0.19957332888749      0.33778876293155      2.04417699313675
  H   0.18058439699474      0.29748052033714     -2.05034154896039
  H   -0.88218270353503     -1.48382108612952      0.01721424688384
  H   1.94860566711229     -0.72741755441301     -0.00725856615161
  H   -1.57092201997304      1.36529177430970     -0.00215395344942
