48
Coordinates from ORCA-job orca E -1700.964132202541
  Ce  -0.10504117198842      0.15060545677373     -0.15523202637261
  C   0.31352637116765     -4.35692469323860     -0.61364076841136
  C   0.83534541705143     -2.99190666432399     -0.33338880791813
  C   2.16847950507037     -2.77891187599704      0.01691373449944
  C   2.70848455219367     -1.51640958070659      0.23907826813437
  O   1.99302486622920     -0.43847122614659      0.18130394536046
  C   4.15371668650777     -1.32664367881674      0.54177497818556
  O   -0.01501556936511     -2.02535817310132     -0.43627999102345
  H   1.07802318606072     -5.12065891782425     -0.51549837368518
  H   -0.10013867634664     -4.37816819387676     -1.62265036410338
  H   -0.50977036610427     -4.56989113287792      0.06999439711214
  H   2.82343104240738     -3.63305131975349      0.07911449784962
  H   4.60803904117928     -0.75272499120284     -0.26771930661827
  H   4.67845013141875     -2.27010014973656      0.65144350733072
  H   4.26088090908743     -0.73233176571929      1.44942282198575
  C   0.59716182750580      4.93287223888430      1.66557828709316
  C   0.41883368588543      3.56811597131262      1.20650312893383
  N   0.27767337407693      2.48886229603559      0.84317842414953
  H   1.62954607041801      5.07882677827347      1.97803737171525
  H   -0.06971882281668      5.12377675010462      2.50448496366260
  H   0.36234437398991      5.61940720224577      0.85402269087274
  C   0.12995006737843      1.37602726480518     -5.15293828271667
  C   0.09157877614949      1.07614209127596     -3.73480335317345
  N   0.06333631371443      0.83687312655654     -2.61295646811559
  H   1.16533769881766      1.41103237367035     -5.48701944486492
  H   -0.34479176758688      2.33908574412028     -5.33191915397802
  H   -0.40387356630356      0.60041478514901     -5.69941154241375
  C   -1.66449608777643      0.17067425101317      3.62242357151474
  P   -0.24408009183444     -0.53129393341403      2.73387690892154
  C   1.19911981002346     -0.02244211901884      3.71473026102855
  C   -0.36425138316299     -2.32109114172049      3.03104850174665
  H   -1.64090039060270     -0.11637336144903      4.67363485790588
  H   -2.59244140285663     -0.18955430494240      3.18031237094870
  H   -1.64987884325715      1.25763015748834      3.55238771167236
  H   1.08433270009547     -0.32881417098311      4.75443814230843
  H   1.31636516961892      1.05968205921605      3.67665174215850
  H   2.10083881300960     -0.47940681904622      3.30919215646907
  H   -0.44746511053494     -2.52712060680056      4.09823517504019
  H   0.52633923984401     -2.81774953125989      2.64614581508196
  H   -1.23721753128685     -2.72789349130434      2.52212015180286
  C   -3.77378709185819     -1.41050879847797      0.40084943781811
  C   -3.47953914748991      0.05382090351279      0.17857711585709
  O   -2.06234786548491      0.26638356886948      0.02288383389176
  H   -4.84730647139974     -1.55750681609510      0.51013757884524
  H   -3.29004599994436     -1.77334500927038      1.30851217353047
  H   -3.43169229355083     -2.00920368260084     -0.44224219819696
  H   -3.80354349103799      0.66890218007913      1.01780572271702
  H   -3.95821648631162      0.42832095031896     -0.72491416455278
