28
Coordinates from ORCA-job orca E -1404.625768971532
  Ho  -0.27043879585411     -0.35645495467573      0.10214210192522
  N   0.12080516339107      1.69535913139575     -1.03377591562819
  C   1.11202075599253      2.34382373493299     -0.10528345861688
  C   2.38376033294944      1.51634918612271     -0.05598941686385
  N   2.10657751375741      0.07917160198554      0.30373764916192
  C   2.56683856173365     -0.29538805664308      1.68600180215479
  C   1.57920265125043      0.16555546082348      2.73452876623953
  N   0.23089127926907     -0.45939315669111      2.46106574707292
  H   0.53536147555930      1.64788611303921     -1.96682226474913
  H   -0.67331510834239      2.32534414347732     -1.15727097057663
  H   0.64174937676422      2.42687797149835      0.88127917348485
  H   1.33612790260330      3.36108436346091     -0.42507225270221
  H   3.08179939153250      1.95574763706989      0.65645281344600
  H   2.87429845661834      1.53610275648561     -1.02983392676368
  H   2.67272994271528     -0.48456976348515     -0.32787158598813
  H   3.55276717982156      0.12621920950640      1.88374880861464
  H   2.67447635251077     -1.38208750198937      1.71691213653382
  H   1.45607619990234      1.24828225727491      2.72760471686543
  H   1.92825620883784     -0.11075273786719      3.72836170478266
  H   -0.44930241694767     -0.02500625031270      3.08723824674061
  H   0.27108939415198     -1.42237373564136      2.80419751201525
  N   -2.65739486593137      0.13700774000972      0.46074413432908
  H   -3.19827229105662      0.23022838412615     -0.40327942629120
  H   -2.87877719676072      0.99213826418177      0.97592185463151
  H   -3.16143496416246     -0.58984384669066      0.97595898819924
  O   -0.36437209596270     -2.29663452873466     -1.13896730960555
  H   -0.35622265993949     -3.21572276804981     -0.81989923029207
  H   -0.43989774440349     -2.38295065460990     -2.10523039812000
