32
Coordinates from ORCA-job orca E -2162.467257036408
  Ho  0.08649628038594      0.30564453813377     -0.15439875557453
  N   -0.23787164375081     -0.11142476633641      2.32779485739888
  H   -0.32250003859742     -1.08310604266738      2.60946991990364
  H   -1.03726277470442      0.37518896582948      2.72152365122104
  H   0.58679127749146      0.23722883161275      2.80647352008614
  C   4.44721174052018     -0.02891602232754     -0.72223507997147
  C   3.29177234129504     -0.20426708624064      0.13343008559478
  N   2.34714485509141     -0.32608597874886      0.77654548253695
  H   4.95088534154380     -0.98166839984402     -0.86908345342912
  H   5.13571242583493      0.68458310681157     -0.27492699955911
  H   4.07562588501204      0.35241026371048     -1.67385973478128
  O   0.51046353330272      2.46506201832120      0.75737120247555
  H   1.12178838579085      2.97411793140798      1.29309372049628
  H   0.38259652484177      2.91151194794027     -0.10462320574265
  O   -0.02491296243103     -2.02816632315702     -0.63769132090697
  H   -0.18871507801747     -1.88762189999329     -1.59124764543588
  H   0.53327642523365     -2.80182646623991     -0.53177019504293
  C   -5.13770972286509     -0.08553014136664     -0.05514994747822
  C   -4.49642328644894      0.93547793426454     -0.73467961975521
  C   -3.11702466735423      1.02155881363192     -0.67067762200640
  N   -2.37551649030641      0.15915361800873      0.03893759093869
  C   -3.00508688626167     -0.83147979423316      0.68505322961086
  C   -4.37506306371952     -0.99220545801568      0.66726757620463
  H   -6.21399258210991     -0.18095517964218     -0.09220487970551
  H   -5.04921715309020      1.65603846923910     -1.31876544536619
  H   -2.57097586181583      1.78523999066909     -1.20856774023528
  H   -2.38024185405442     -1.53490807615810      1.22179918330329
  H   -4.83055145548002     -1.81248369103206      1.20186210477910
  O   -0.51421280880422     -0.15249463978602     -2.39374257076530
  S   0.33488239438704      1.11175605010207     -2.66627400763376
  O   -0.33404457183767      2.07398944028668     -1.63164416864327
  O   1.61147549091857      0.74437804581916     -1.86867973251676
