41
Coordinates from ORCA-job orca E -2740.731906259447
  Gd  0.11811631120610     -0.24685671839466     -0.57624915868735
  N   2.46762049262817     -0.35375789895732      0.30597909101417
  C   2.43178206513712     -0.67376633982581      1.75167153289748
  C   1.48164750047847      0.27011576168608      2.46641637450291
  N   0.11047533238181      0.11548197449534      1.92627913209348
  H   2.98958277626229     -1.06902706147018     -0.19051863774867
  H   2.95571362201253      0.53001131621418      0.16375431991208
  H   3.42332282774899     -0.59822907931031      2.19939106629144
  H   2.09189405171459     -1.70427629603219      1.86274652043958
  H   1.79253012879265      1.30260499996503      2.30509204727405
  H   1.50984531619898      0.06891742340875      3.53766206881721
  H   -0.47796982596993      0.88921684794644      2.21919589710031
  H   -0.30963167190959     -0.73452899633341      2.30923525027474
  C   0.49288350279359     -1.94382251511827     -3.70379130855444
  O   0.42243710052906     -0.72902009090321     -2.92065520982471
  H   1.45286717037756     -2.00233033866097     -4.21060917926387
  H   -0.31893201032691     -1.96565368975293     -4.42677251912390
  H   0.39560232354067     -2.76681871668421     -3.00377428300654
  H   0.55982831491892      0.04404163286963     -3.47828160580480
  S   2.46209026277149      3.25095748344175      0.08070090873256
  C   1.38528978564442      2.47115204393843     -0.80403374045189
  N   0.59954484739309      1.85213292194257     -1.44957425403748
  C   -3.95832836006706     -0.87233279310519      2.58823477467062
  O   -4.23837327068603     -0.28541576127076      1.30394311120320
  P   -3.14312999097700      0.66123756902607      0.60790631811784
  O   -4.03579414872911      1.24836395225437     -0.58392313421969
  C   -5.05508337714151      2.21834714376042     -0.27346987495387
  O   -2.29307665858755     -0.43120272983914     -0.34053464023357
  C   -3.00821432312461     -1.38851936797546     -1.17839688973290
  H   -4.91419979979218     -1.06376037791559      3.06410710746356
  H   -3.37765390650635     -0.18819141266426      3.20940976199605
  H   -3.41371499559363     -1.80548738240879      2.45710301265871
  H   -5.36073604764825      2.65889582228041     -1.21590291238328
  H   -4.66091552795222      2.99744418768875      0.37988338687624
  H   -5.90127815197221      1.72689258463649      0.20079192989167
  H   -2.30566178691929     -2.18183729444311     -1.42265401091776
  H   -3.36433967795091     -0.88526658392712     -2.07199795741586
  H   -3.84239093577067     -1.79916133653617     -0.61786879470239
  S   -0.72266390830334     -3.33206292661313      2.15255915016022
  C   -0.15118270098427     -2.93773863491162      0.70318942733154
  N   0.27719734438241     -2.58994932250081     -0.34714407865677
