4
Coordinates from ORCA-job orca E -3356.995367502032
  Cm  0.06483870642291      0.38456531530143     -0.27576966258232
  Al  -0.77709420789500     -2.20355733178338     -2.07611574541137
  Se  -0.53692904534419      2.80639312406845      0.76695324688329
  O   1.84567454681627     -0.16551110758649      0.14833216111039
