15
Coordinates from ORCA-job orca E -1484.309659115572
  Er  -0.16558182773428      0.86788340579771      0.72297614331153
  N   1.56444242023316     -0.60149647524095     -0.21296302390687
  H   1.08319573318986     -1.37247846351753     -0.67349538489827
  H   2.11596804498089     -1.02125849367161      0.53227164003886
  H   2.23785793962263     -0.25656059715987     -0.89146882232748
  O   0.13586541863896      0.70098622105040      2.65633562316653
  H   0.14205689426971      0.55273611001856      3.59918939998722
  N   -2.49236226424606      0.22665123952688     -0.51436392033200
  O   -3.50125190583332     -0.05372708338460     -1.04834954900487
  O   -1.49750486597352     -0.59125111835850     -0.39650304539079
  O   -2.26073892168075      1.38550886133608      0.00937076106153
  N   0.22244782947637      3.24929039029586      0.26794329631627
  H   -0.66786237605075      3.64437438500944     -0.03124247869792
  H   0.89904263529235      3.54033643783671     -0.43259493698629
  H   0.47652524581477      3.74720518046136      1.11829429766251
