4
Coordinates from ORCA-job orca E -3439.461241559028
  Ac  0.81503061552594      1.02508635062794      1.00875902229765
  Sr  -0.67577605169766     -0.62270576117565     -1.83203660114368
  Cl  -1.58020139015927      1.73475768337335     -0.27301778040120
  Br  2.03743682633099     -1.31524827282564     -0.34030464075277
