6
Coordinates from ORCA-job orca E -3865.696857091319
  Md  -0.02209820910485     -0.65835653213046     -0.31508905949480
  H   1.07180677168778      0.28224201169773      1.81830745481375
  P   -0.79828451421976      0.86699693197192     -2.39656677657941
  F   -1.25115343347563     -2.27534361918063      0.01621083799619
  As  2.29796258007952     -0.48208670193288      1.19546516459562
  I   -1.29822319496706      2.26654790957432     -0.31831762133135
