22
Coordinates from ORCA-job orca E -1692.037581537261
  Tm  -0.30793094668955      0.88726163400780      0.54850332429562
  C   4.00068547683153     -0.23752968782182      0.73060935675093
  C   2.64090258642956      0.04802022624242      1.27014014457662
  C   2.35637568395954     -0.15673786362106      2.62313833779614
  C   1.12079692841980      0.08047232992455      3.22100177041630
  O   0.09893423697550      0.52025362716896      2.56280771409569
  C   0.89924800713338     -0.16612433714493      4.67267973107842
  O   1.77404324844183      0.48689256467883      0.42138313095234
  H   4.67815716977660     -0.60715394799872      1.49334931326777
  H   4.40693629815725      0.67345820864756      0.28980136351211
  H   3.91476145215709     -0.97091428376841     -0.07171661094537
  H   3.15211349289562     -0.52385646012307      3.25098726930114
  H   1.79929548390004     -0.49968835699998      5.17830570332421
  H   0.11666691812924     -0.91807927856977      4.78355425867902
  H   0.52914374553208      0.74842832667717      5.13659366588514
  N   -2.55327290101344      0.03037916627381     -0.72201803671186
  O   -2.52476734563295      1.09689275476441     -0.05492520691230
  O   -1.44862542024941     -0.59073248153323     -0.68379900491281
  N   0.06098195936079      3.12633722718880     -0.32359812333703
  H   -0.74020039304147      3.46935250814087     -0.85005168627462
  H   0.85374917069937      3.15461152993735     -0.96141797154308
  H   0.25530514782752      3.83775659392840      0.37727155670551
