4
Coordinates from ORCA-job orca E -926.473425545640
  Nd  0.27949617420577     -0.12594720712177     -0.12314727710710
  H   -0.59662990956121     -1.43361694631285     -1.72350429902851
  Si  -1.16750661883692      2.68303980722190      0.32582813574654
  O   2.08113035419236     -0.30158565378728      0.08422344038907
