4
Coordinates from ORCA-job orca E -8234.805718203463
  Np  -0.06625447589545     -0.09297235233703      0.17325108326657
  Br  -0.95824616420029     -1.38893809586450     -1.97444452755093
  Br  -0.97316646678699      2.40798135541683      0.18154407547483
  Br  2.59415710688272     -0.10418090721529      0.18304936880954
