4
Coordinates from ORCA-job orca E -1121.738316062040
  Bk  0.46368327279012     -2.57805548666105      0.33989988612281
  Li  -1.94009446618451      0.72325218901976     -1.99119992222806
  Te  0.10887456590785      0.18594348628891     -0.38135511463383
  Na  1.96402662748653      2.49074981135238      0.59605515073908
