4
Coordinates from ORCA-job orca E -849.450397046792
  Bk  0.66671796799028      1.45066947598680     -0.02522593359599
  Be  0.27097663920699     -1.81256923126949     -1.17099607026361
  O   -1.03246878223112      1.68638168951584      0.57173764387662
  O   0.69126417503386     -0.50259193423316     -0.81211564001703
