37
Coordinates from ORCA-job orca E -1527.649175302220
  Nd  0.58680670748486      1.07346317615757     -0.24291007277892
  C   1.18399364181277     -0.04034896675723     -4.80665156074173
  C   0.81536715448156     -0.29546986788813     -3.37955298338433
  C   0.64130950484061     -1.65636071046205     -2.96697870815394
  C   0.22367539188252     -2.08094065977741     -1.66350901423559
  O   0.07498684521036     -1.28811345803972     -0.71025654235212
  C   0.01168075211793     -3.54774251959975     -1.44613395278214
  O   0.70184210234781      0.66856754416872     -2.59201034385761
  H   0.44687701461385     -0.48628568932458     -5.47457756684598
  H   2.14266326681845     -0.51732645113150     -5.01697606487042
  H   1.25649789687680      1.02677102311557     -4.99016501461130
  H   0.76728025765808     -2.41955814246201     -3.72022480916479
  H   -0.61584223573767     -3.96977487479555     -2.23006284206525
  H   -0.43727502925908     -3.72275567557913     -0.47330065752428
  H   0.97836448799132     -4.05261678634089     -1.49689234501927
  N   2.76046932927180     -0.10993022429616     -0.57344799910065
  N   2.88500453504897     -0.92397457232035     -1.40863862742932
  N   2.95175242754576     -1.72356099102102     -2.24780791406581
  C   0.55086255636851     -0.22826208785404      4.92352065091239
  C   0.37969428550105     -1.21731867336056      3.96699273316336
  C   0.35998148573076     -0.85343748244020      2.63473367769305
  N   0.49752892883522      0.41654351752392      2.23164057409806
  C   0.66429561112185      1.36840155320922      3.16054441835555
  C   0.69594025407586      1.08751013924449      4.51337879249055
  H   0.57369199326104     -0.48074759422703      5.97453490932439
  H   0.26663670080603     -2.25467286424258      4.24472706530474
  H   0.23204158140483     -1.59127922774238      1.85239645848200
  H   0.77962395985604      2.37850947250155      2.78823386025689
  H   0.83588861438711      1.88672833562347      5.22579453307793
  O   0.90061497439091      3.09362276786091      0.19100192758138
  H   1.10529395838805      4.02645098368638      0.19114171493969
  C   -4.46149189226889      2.16091865388558     -0.45494002007359
  C   -3.07789830028716      1.72283850609977     -0.39634778039049
  N   -1.98528593918297      1.38389095686790     -0.34918014140628
  H   -4.82216938252720      2.08765121477881     -1.47852515292805
  H   -4.52654460375447      3.19431186895089     -0.12137846275443
  H   -5.07045883711332      1.53159780598751      0.19022726085634
