34
Coordinates from ORCA-job orca E -2796.650537380337
  Eu  -0.27263105413057      0.14618494088733     -0.04262743934062
  S   -0.64317700669866     -0.12761705190999      2.98342620125888
  C   -0.77473625304285     -1.73518266531515      3.39473230315026
  N   -0.83776996226556     -2.85725791774622      3.70659957104608
  O   1.08626977435172      0.07220443008703     -1.93644616617767
  S   2.47641208519433     -0.12953492452084     -1.26846095197558
  O   3.34254981726791      1.01803652322462     -1.58835741503542
  O   2.02279858939995     -0.00605596872422      0.23623293247914
  N   -2.96523743268778     -0.34381172082081     -1.19312084513012
  O   -2.78257370372677     -0.32322961775090      0.05308910040361
  O   -1.94615269315941     -0.18088415572148     -1.92028265302296
  O   -4.07440607131316     -0.51211077797945     -1.67614954938405
  C   -2.94850393108959      3.24252237856352      0.13176970897535
  C   -1.56635530401066      3.24891804448720      0.78428251002668
  O   -0.80758051899831      2.18263680544520      0.37723105035644
  H   -3.55122521664755      4.10016250772795      0.45171828597106
  H   -3.47350664667189      2.32231685405849      0.39182020006228
  H   -2.84259536334586      3.27208232089355     -0.95464088291418
  H   -1.70187006497205      3.24999970952189      1.88075747266405
  H   -1.06942234258336      4.20650753613583      0.53995781721160
  C   0.09042648510815     -4.79301597738780      1.10416868822715
  P   0.83039202724355     -3.26563466451572      0.50136111725030
  O   -0.23308787515384     -2.25570557245522      0.19148192401935
  C   1.77149262417282     -3.68850602480836     -0.97310973884731
  C   2.02974749179691     -2.76163962636254      1.73077168890865
  H   0.85429054015710     -5.54648522731393      1.30207765309803
  H   -0.61266193465365     -5.16597986557724      0.35959698987259
  H   -0.44160301654418     -4.54805987175968      2.02502678350689
  H   2.49570417835813     -4.47812233248750     -0.76709544196240
  H   2.28581740535772     -2.78232754039860     -1.30621154562945
  H   1.08036678578093     -4.00797896583377     -1.75282069894335
  H   2.82411642764310     -3.50737595217609      1.80178732487000
  H   1.52125532596506     -2.66173771316111      2.68863550532364
  H   2.42715683389831     -1.79311791630583      1.41549849968104
