42
Coordinates from ORCA-job orca E -2032.252290175943
  Pr  0.27111585737906      0.59512705563489      1.26875395425229
  C   6.19493964986634     -1.14564340940974     -1.57295810364238
  C   5.80196593361639      0.19036382288985     -1.54784180854458
  C   4.56075415795077      0.52722654345081     -1.05216808259266
  C   3.71632740324914     -0.48715094815243     -0.57796625531918
  C   4.11191307723756     -1.83256557051913     -0.60876540830146
  C   5.35542987472433     -2.15508691560222     -1.10843924837430
  C   2.44358921963197     -0.14575561969704     -0.02341810926546
  O   2.02252246711507      1.09015487589538      0.07825035723271
  O   1.61607736412460     -1.00326169408521      0.46429131710565
  H   7.17090364030737     -1.40403785496818     -1.96070046154339
  H   6.46800528464167      0.95749403871706     -1.91462948726425
  H   4.23738589227933      1.55804554655711     -1.02373030989697
  H   3.44542460614518     -2.59968708948664     -0.24074535530010
  H   5.67904802127454     -3.18514153016534     -1.13799518708434
  C   -1.72310200063371      4.67846859394410      2.53015126317645
  C   -1.42958863931516      3.33041216834656      2.39242125783628
  N   -0.40288094113737      2.93732557836073      1.62919956865000
  C   0.32112546881649      3.87898623148606      1.01017214894887
  C   0.00458907134703      5.22040362219790      1.16190994264417
  N   -1.01158909023739      5.61596403401994      1.91719933182195
  H   -2.55174773417246      5.00092776155644      3.14666092913468
  H   -2.01763461199298      2.56792009248026      2.88554087610823
  H   1.15349871627855      3.56152132628273      0.39345207166326
  H   0.58573172061438      5.98386257748797      0.66191956648021
  I   1.92637893186425      0.83495567318376      3.51649388722998
  C   -5.71023107909641     -0.00548752734379     -1.87908864669421
  C   -4.51437186670087      0.20727633979896     -2.56029140575311
  C   -3.33867781042963      0.33042287768505     -1.85217072716952
  C   -3.37265755581006      0.23959402386057     -0.45152866339286
  C   -4.57887575691885      0.02437141616479      0.23353462376724
  C   -5.74578602676846     -0.09724854838226     -0.48940539888047
  C   -2.16489324983923      0.35471618787230      0.29990875996419
  O   -0.99611592922569      0.53417590298658     -0.34860795269093
  O   -2.03488835231268      0.30286663109313      1.55357033502943
  H   -6.62930787048723     -0.10353459778617     -2.44072094899951
  H   -4.50860120631739      0.27312640627363     -3.63838015329453
  H   -2.40173269734338      0.49256313400829     -2.36617025119372
  H   -4.58209216826058     -0.04953577482840      1.31194343767201
  H   -6.68422660274608     -0.26635758121511      0.01783293669557
  C   -0.20724758725898     -1.83486246326671      2.61676318041959
  O   -0.37697758145936     -2.81721533732674      3.11635221936510
