37
Coordinates from ORCA-job orca E -2498.575337062675
  Tb  0.55785919200190      0.32848772167171      0.45570836269499
  C   -5.39263187834317     -3.05620284069495      1.43716819934958
  C   -4.84671201207337     -2.99219491206130      0.16172089946382
  C   -3.59719280053193     -2.42515897069137     -0.02668411065669
  C   -2.89706887274228     -1.91934890407076      1.06336468240292
  C   -3.44199986005393     -1.98656095694032      2.34119314899151
  C   -4.69077626498115     -2.55692827423413      2.52645458661457
  C   -1.57499027636968     -1.27723379452197      0.85540976918947
  O   -1.05806216371891     -1.22658413116641     -0.29665740335040
  O   -0.97130019018250     -0.74080659761074      1.84473077032795
  H   -6.36984365586719     -3.49710461525020      1.58265808621907
  H   -5.39737329065892     -3.38214744579820     -0.68338862749931
  H   -3.15345232664794     -2.36080859618722     -1.01011317651227
  H   -2.87885424052270     -1.59204678167264      3.17536772847338
  H   -5.11897221583469     -2.61154249887069      3.51793691753242
  N   3.23818073294435     -0.58319601914157      0.43038264577428
  O   4.39144181076365     -0.88794677330448      0.39040856724732
  O   2.30643282457546     -1.33414268304698      0.00297769525546
  O   2.84884461578118      0.54393407587324      0.91292135506646
  F   -0.26809716123885      2.17044552748431      0.21366397637165
  F   -0.31644143223275      2.75741047730947      4.48383304131499
  P   -0.86701589163739      1.58414165437497      3.59354575772307
  F   0.54742887981608      1.27317504958244      2.86741788541422
  F   -0.76022776330633      0.44785149530451      4.67085146528165
  C   0.49019063006703      1.66215829339837     -2.68246161689200
  C   0.63132756597105      1.22538304920113     -4.12984099310561
  C   0.29746151211311     -0.26365504655395     -4.05109111791268
  C   0.98470389798749     -0.67069244159184     -2.76212189094136
  O   0.86564382344397      0.49386771711943     -1.90176751833385
  H   -0.53408630455065      1.92479741208045     -2.42233620090304
  H   1.14616097456418      2.47986793381763     -2.39485779871346
  H   1.65687218390027      1.36544950565807     -4.47362035389442
  H   -0.03110689646557      1.78332517073219     -4.78788496600554
  H   0.65846345560928     -0.83274217578702     -4.90495091242949
  H   -0.78008535648929     -0.40938278222167     -3.96516713700514
  H   2.04561798760474     -0.87643854840599     -2.90607311031201
  H   0.51916076730578     -1.51072929378332     -2.25339860624141
