23
Coordinates from ORCA-job orca E -2516.531203026509
  Yb  0.45467810375789      0.91445473783679      0.68839449399836
  O   2.36704872567428      1.01728432395520     -0.87438003621450
  S   1.36382023879160      0.46189975096342     -1.89171715754182
  O   0.17515502745073      1.43041310295598     -1.78124989079861
  O   0.82829416665598     -0.81056619660551     -1.20863597996321
  N   0.67870163747183     -0.60678163480657      3.27396484540143
  O   -0.44679719877710     -0.26443814474411      2.82621948723070
  O   1.68954947145516     -0.33347874363141      2.58346771194705
  O   0.77978907029535     -1.19335322768182      4.35151791617304
  N   -0.34200437531732      3.39134818794293      2.24830509207330
  O   0.83767394119140      2.99025128767799      2.15054407745642
  O   -1.17214897634220      2.72588300344582      1.58726880546193
  C   -4.53319359869061     -0.69604727140770     -0.49667938469405
  C   -4.28178289109329     -0.08830526268991      0.72397284949898
  C   -2.97552355696524      0.27004923270167      1.02757417431428
  N   -1.96033910579070      0.05307755904025      0.19698520672340
  C   -2.19695484395718     -0.52927645182929     -0.97806392219840
  C   -3.47456000281307     -0.92151612548319     -1.36116863984524
  H   -5.54122690920499     -0.98852367619253     -0.76932889659231
  H   -5.07666677182114      0.11017436471898      1.43077446634485
  H   -2.71901140899338      0.75586701366855      1.96051185638424
  H   -1.31440533405800     -0.67710691507624     -1.59253175181180
  H   -3.62549540891982     -1.39120891475933     -2.32434532334810
