6
Coordinates from ORCA-job orca E -667.605278721664
  Sm  -0.11965276325876     -0.31698725472501     -0.65364250910122
  Li  0.40817569160518      0.96973119541244      1.98031018788019
  H   0.25956620052651      0.59459783103813     -2.46560754673304
  H   -0.96060381482467     -2.18493789759735     -0.72149687459188
  H   1.38273536752507     -0.04891924049558      0.94336302278473
  H   -0.97021068157334      0.98651536636738      0.91708371976122
