6
Coordinates from ORCA-job orca E -914.654634361120
  Md  -0.67518300691489      1.32154607959950      0.78927153527045
  Li  1.49376317533141     -1.03594025844052      2.09280459390291
  Li  -0.83978964038759      0.17241466255361     -2.15205672468579
  Li  -0.10271004618515     -1.80913429020857      0.06481995602505
  H   0.85032506872885     -0.33592409618802      0.57258984219853
  H   -0.72639555057263      1.68703790268400     -1.36741920271115
