4
Coordinates from ORCA-job orca E -1163.878344003645
  Md  0.10888712125791      1.00023700812368      1.96613854819180
  Li  -0.19279996757956     -0.11627290036065     -2.54006523938985
  B   -0.41852162493663      0.72820134360315     -0.52198646509826
  Sb  1.09892447125829     -0.79027545136618     -0.34068684370370
