5
Coordinates from ORCA-job orca E -3283.875263161759
  Pa  0.14162662726912     -0.86255454929549      0.26962143472764
  H   1.68306967664149      0.52709364222770      0.20315114406780
  Te  1.18098083026547     -3.32306518426514      1.08792256289183
  Br  -1.10928542288980     -0.84076995258525     -2.17323707327569
  H   -1.20190171128628     -0.14774395608182      1.68460193158841
