28
Coordinates from ORCA-job orca E -1425.726044516487
  Pr  0.08605418466736      0.09412713026935      0.01817909474918
  N   -0.07309549098181     -1.48639381448977      2.25254778519720
  O   -0.19964656358155     -2.12364780291909      3.21203359779805
  O   -1.09273851235947     -0.97520095060261      1.58159058180256
  O   1.04384525296905     -1.17609986849000      1.68962385618155
  C   1.54710653967137     -1.39083559422607     -2.69123647678005
  C   2.00778000322263      0.03696792535902     -2.51890934729681
  O   2.71401158191280      0.70785009455865     -3.14849996522720
  O   1.43936723730896      0.59562888429323     -1.27861603089985
  N   0.33871090039345     -1.64784166890153     -1.88113534471183
  H   2.36879068791343     -2.02629113336681     -2.35768030563763
  H   1.39675275848215     -1.57725561208523     -3.75321887163198
  H   0.36053958350215     -2.60388790169036     -1.53213513983322
  H   -0.48860496732582     -1.59767921751996     -2.47306758386975
  C   -0.44362563591977      4.08855180266492      1.97544679291008
  C   -0.87985218945871      3.00277269114031      1.06732421792123
  C   -2.06443452502357      3.05721908186592      0.32809370031967
  C   -2.45850722118053      2.02424058089772     -0.49487425041843
  O   -1.70937652509790      0.94825130800154     -0.63190766876082
  C   -3.72326218085789      2.01963490540437     -1.26901117918689
  O   -0.09343224575486      1.97252907147831      0.99369661708731
  H   -1.17940326771183      4.88358133524752      2.03238406144145
  H   0.50652594696919      4.48687021895002      1.61115590108760
  H   -0.25489502286109      3.67509298133227      2.96751126526985
  H   -2.69571213822319      3.92617363126324      0.41804819705825
  H   -4.29289016298688      2.92735870653447     -1.09966190786908
  H   -4.31703165692948      1.15098353738826     -0.97835689585704
  H   -3.49597637075809      1.91889967764220     -2.33172470084334
