4
Coordinates from ORCA-job orca E -1410.206748982177
  Pr  0.20251419193100      0.25932148602325     -0.46376124694573
  I   -1.24520190296032     -1.74497054311573     -1.97526698761238
  I   -1.24010539974508      2.58605729229925      0.48313273671733
  I   2.87928311077440     -0.27851823520678      0.51929549784078
