4
Coordinates from ORCA-job orca E -666.579250048128
  Pa  0.30145086583026      0.42291592548953     -0.15206746240347
  O   -0.58352200494841     -0.84146994018933     -1.33588616591249
  O   -1.03273329427979      1.65147802422599      0.02182764784335
  O   1.91129443339794     -0.41103400952619      0.02952598047260
