29
Coordinates from ORCA-job orca E -1869.723723880926
  Nd  0.37818925727655     -0.46269662382551     -0.34048067188917
  C   2.10173035165595     -3.40246114518072     -0.52048415241744
  C   1.67885715495270     -2.30905038943064     -1.47437914257614
  O   2.33293891894268     -1.22574944471012     -1.43831394357378
  O   0.46674564571831     -2.30159414613992     -1.84113067006386
  N   1.50080543376737     -2.80622818999530      0.71664356813093
  H   3.17941388826893     -3.49423137108482     -0.44106559246096
  H   1.64493576553215     -4.35630551497897     -0.75977726307089
  H   2.22166518645296     -2.58258780997295      1.39164960872544
  H   0.86987402387687     -3.46030443144552      1.16163303367299
  C   -1.45170702274312      3.67706364751931      4.68055054047048
  C   -0.20278570036189      3.75721071806824      4.08617540913099
  C   0.23707049985396      2.72431120399498      3.25219712282282
  C   -0.59161667599888      1.61207704519124      3.03043701152755
  C   -1.84100651093182      1.54192817602860      3.62083245026985
  C   -2.26616780945562      2.57352256586870      4.45155952940802
  C   -0.13449805474368      0.55459299780567      2.09371764310645
  O   -0.96420404120576     -0.28098230940120      1.61736552841641
  O   1.06461333886349      0.57014149272258      1.67314082358364
  H   -1.79198152679252      4.47205195143212      5.32907453444608
  H   0.43890844601874      4.60807545827079      4.26830943735434
  H   1.23365607515510      2.73331467840293      2.83280904441304
  H   -2.47230947312980      0.68614898983322      3.42894950205186
  H   -3.23792268103361      2.51674129688447      4.92148624476234
  C   -3.13725200750934     -1.00760740175483     -1.71864360849900
  O   -2.10495009346145     -0.76197882434319     -1.32675805847850
  S   -0.73212904420971      4.14515548508509      1.04442147999256
  C   -0.45505429192910      2.88467318536581      0.03129298708056
  N   -0.24691905282941      1.95386870978982     -0.63481239633708
