5
Coordinates from ORCA-job orca E -2375.070666450536
  Es  0.27074027729472     -1.03217320802284      0.80160994772509
  S   1.40717607142876      0.60770902727006     -0.98611598453502
  S   0.89683350852894     -3.48795221019057      0.93201418450344
  S   -0.11109954464631     -0.46920956969900     -1.76805600054293
  S   -1.76916031260611     -0.26541403935765      2.09260785284942
