45
Coordinates from ORCA-job orca E -2084.724461114540
  Tm  0.12909433568389     -0.15670651338129      0.27755951871652
  C   -4.87319452282398      4.77915555359791      0.13644610504903
  C   -3.55328643212329      5.14679063663457     -0.09191487910597
  C   -2.55055459796934      4.18915443654932     -0.05620310784249
  C   -2.86499115186041      2.86176556633288      0.20675424968800
  C   -4.18561323360342      2.49491773543888      0.43386642915179
  C   -5.18863058082658      3.45246277569814      0.39993908419988
  C   -1.77625162303824      1.82249921202346      0.23776068842227
  O   -0.58929462781199      2.17377040157255      0.04627378277995
  O   -2.10126098298234      0.61848313745208      0.45015858671628
  H   -5.65623871684595      5.52665227884682      0.10848187588265
  H   -3.30745794541719      6.18075324521174     -0.29812445157745
  H   -1.51436492945234      4.44494735331947     -0.23019525617831
  H   -4.40135383473791      1.45439694027754      0.63407650133293
  H   -6.21728968106331      3.16535445363466      0.57749246230372
  C   -2.41949032080225     -2.52410689971416      2.01230590204442
  C   -2.10154657858623     -2.59087234260988      0.52207717132824
  O   -0.83293760307748     -2.10717639330120      0.24282402964669
  H   -3.41307640913779     -2.92773365358618      2.22922394423103
  H   -2.38417737225398     -1.48667413308154      2.34865275401799
  H   -1.67875786545961     -3.09158517754776      2.57922543085603
  H   -2.86670266687739     -2.01698748212065     -0.02150703114638
  H   -2.19876003225548     -3.63615462686629      0.18496990020160
  C   2.28428929510324     -2.55215316530919     -1.05803714784050
  O   1.67704699469622     -2.21750038058978      0.17792158286786
  H   2.60554384401524     -3.59912399274765     -1.06229808567981
  H   3.15644745919206     -1.91351475055640     -1.18370424685573
  H   1.61208677332558     -2.36369855376715     -1.89600583539002
  H   0.77532632744142     -2.61770548150981      0.22073096187823
  C   3.24571245939694     -0.23383041228015      2.84493486634984
  C   1.82023624791590      0.17272492087958      3.20859944152181
  O   1.00821299396389      0.23204627977487      2.10130220673951
  H   3.88356386507706     -0.29942996625944      3.73167339971947
  H   3.67614149837235      0.49797099997462      2.15852417833907
  H   3.23264078593910     -1.20073417991405      2.34031633364663
  H   1.85224254995591      1.14650711541771      3.72605809306083
  H   1.43028221994987     -0.54901151226248      3.94612790869055
  C   0.02886586247463      1.32219621989600     -3.45938191387399
  C   1.25109096536558      1.10434582963452     -2.57148307615739
  O   1.01385711971397      0.16277665568668     -1.59296002885836
  H   0.23208484089990      2.04619568509940     -4.25438140426507
  H   -0.80225552476919      1.69229573676040     -2.85651461325459
  H   -0.27410456377402      0.37704703231701     -3.91412068866873
  H   1.53524307167575      2.07607093585750     -2.13530961054290
  H   2.09698228739150      0.79731847951657     -3.21233601214518
