4
Coordinates from ORCA-job orca E -390.991466573440
  Ac  1.04813928732509     -1.17704872396205      0.83837327785276
  Li  -1.54693261591178     -0.64150536791779     -1.81282644108040
  Li  -0.01174341851667      1.59027641602314     -0.83846519735391
  H   1.10702674710337      1.05016767585670      0.37631836058155
