32
Coordinates from ORCA-job orca E -2467.633208757316
  Lu  -0.18808816374856      0.04066957925734     -1.30867271752377
  C   5.03084434675168     -3.40813371762210      1.33475575654752
  C   4.31241650229600     -3.95310763218091      0.27746693371977
  C   3.23854208843881     -3.26204822554873     -0.25305403557300
  C   2.88694291413086     -2.02377584545131      0.28285821914007
  C   3.60960252615999     -1.47573894940060      1.34185450485190
  C   4.68267416272843     -2.17237287978719      1.86657113876173
  C   1.75352358529504     -1.28811021833031     -0.27661198125123
  O   1.39541679289763     -0.14969432407965      0.20004534562815
  O   1.07601828254120     -1.75168581773509     -1.26312396971012
  H   5.87158547260622     -3.95000737180282      1.74588708427970
  H   4.59413912135775     -4.91279122010360     -0.13165689260347
  H   2.67063940567280     -3.66522501165380     -1.07913087514223
  H   3.32737474506176     -0.51003378525485      1.73600894665478
  H   5.25123023688625     -1.75521571763680      2.68540285085626
  S   -0.12824420866566      3.13114512121270     -5.05996765539434
  C   -0.17632149604114      2.12344940244641     -3.86170778459389
  N   -0.22331193667167      1.35152549790599     -2.94449086636234
  N   -1.98371622829216     -1.46308320040559     -1.82274325055028
  H   -2.39348211025456     -1.25486463802474     -2.73075956998489
  H   -2.76208667666866     -1.53593184677191     -1.17358286319392
  H   -1.58914149718099     -2.39888024579555     -1.89826678493757
  C   -3.01468482619419      2.92819225295019      0.84095165069801
  C   -2.34232316389833      2.15246128925699     -0.08890779776378
  N   -1.41173658584166      1.27121483904805      0.29982856054697
  C   -1.14805418385575      1.18331531054286      1.60863820696751
  C   -1.83594911455317      1.96790013065987      2.52120662046702
  N   -2.76728142433068      2.83349652527957      2.14188886233102
  H   -3.76412277072931      3.64117188386935      0.52447570821279
  H   -2.53424512547033      2.24651216646527     -1.15034965077397
  H   -0.37077493194556      0.49629712168048      1.91569567445972
  H   -1.62337767907010      1.89416967315494      3.57931434936909
