4
Coordinates from ORCA-job orca E -725.760875332326
  Eu  1.76751017593520      1.03271073376088      1.42060293635561
  Li  -0.27227499717485     -0.68930489351922     -2.16838766110573
  Li  -1.22192615117989      0.50881285270420     -0.02063412927645
  H   0.32318097241953     -0.03032869294586     -0.66818114597342
