6
Coordinates from ORCA-job orca E -1108.709404180574
  Tm  -1.00446049919096      1.37981013771969      0.93951580114474
  Li  1.82583898665008     -0.53248223411166      1.01842191070944
  Li  0.39324437311922      0.08469463213672     -1.43441281983636
  Li  -0.79906442157215     -1.94939152199813      0.30139882261570
  H   0.18712090242802     -0.43083388788071      0.30136336421225
  H   -0.60266934143422      1.44820287413408     -1.12627707884578
