40
Coordinates from ORCA-job orca E -2549.516228079704
  Ho  -0.18346574550402     -0.08939256562945      0.52145611442934
  N   0.55575341886376      1.37067655410575     -1.36706003407377
  C   -0.45539202998119      2.44320200529329     -1.43853010911599
  C   -0.42112071818570      3.24451786033730     -0.14778264897529
  N   -0.55475352693916      2.36988677903459      1.04280223092462
  C   -1.82974622858807      2.53216300205328      1.78352104122530
  C   -2.93881569283331      1.70853176762050      1.15790303207861
  N   -2.56692575377627      0.28145560626088      1.21656586562859
  H   1.49277146248749      1.76030788602595     -1.36998047234055
  H   0.48145210344664      0.76598656857782     -2.17949774807621
  H   -1.42699230461513      1.96271558737725     -1.57303839382367
  H   -0.30345356688597      3.10780776551333     -2.29060498491382
  H   -1.20724734806826      4.00115119206887     -0.15920109291340
  H   0.52944822307552      3.77693599839787     -0.08244210086915
  H   0.18628001545970      2.59839690847450      1.69556055261624
  H   -2.11904997400987      3.58429684807596      1.83285591516449
  H   -1.65719893519677      2.18611177253894      2.80315589122242
  H   -3.07541906943678      1.98075549490758      0.11014479387608
  H   -3.88178227073362      1.91324675543586      1.66672879730038
  H   -3.14107456133313     -0.27163716895902      0.58820066095901
  H   -2.72977622302921     -0.08271274832242      2.15015124155317
  Cl  -1.32744960255465     -1.29752449661064     -1.38279825834618
  C   2.90547852143194     -2.79945383656170      2.15674770058581
  P   2.48310461106189     -2.39088677708833      0.46832907137945
  O   1.82124020816684     -1.01671471355306      0.37347738478806
  C   3.99157647079426     -2.40176149184400     -0.49250412962976
  C   1.40639459169212     -3.67190471635241     -0.15706630055422
  H   1.99567891809341     -2.91388468483431      2.74528999649094
  H   3.51406020333327     -2.00331936651564      2.58407589002266
  H   3.46593363615954     -3.73363707780697      2.18850435786989
  H   4.47709534653597     -3.37503593359666     -0.43370671224201
  H   4.66944245735842     -1.64014571886103     -0.10934841766906
  H   3.75889724929095     -2.18056569719361     -1.53317860533155
  H   1.91250255343321     -4.63681975764890     -0.14561081015583
  H   1.10257413872850     -3.42814768241483     -1.17471581429311
  H   0.51598141133152     -3.72536073329059      0.46945504199032
  N   0.05867028187512     -0.99168033591710      3.16074661105310
  O   0.18815878195854      0.24153998819161      2.83909377328868
  O   -0.35450130419763     -1.74796517399573      2.21506733898023
  O   0.31357025129011     -1.40343566329471      4.24923332989609
