28
Coordinates from ORCA-job orca E -1842.121928338306
  Lu  -1.00418693759786     -0.10315981365755     -0.54033473198836
  N   1.01737212625385     -0.28934198701158     -1.86344488242276
  H   1.61737653134669     -1.09705538269773     -1.73030978095826
  H   1.59860332077374      0.52677638363474     -1.69287952786109
  H   0.77238909690533     -0.27195357609779     -2.84964912360053
  N   -2.21318702603860     -0.12327411456373     -2.25084681664803
  N   -2.93098027374883      0.05264450762808     -3.21071471958388
  N   -3.59453614381473      0.20522270324880     -4.10485105889981
  C   -1.43248948236553      2.89860610955229      2.08261756819660
  C   -0.18959720364807      2.60116651388159      1.26409105132295
  O   -0.34455351766887      1.41029332707361      0.53154050302365
  H   -1.31786916819699      3.81547177693624      2.65950496756638
  H   -1.62533528894825      2.08981887968941      2.79355969490072
  H   -2.29846833061506      3.03002990901650      1.42879914092780
  H   0.67728308939214      2.50851429463448      1.92341819386184
  H   0.01101224166783      3.42886805491720      0.57953651468519
  C   -1.13550428072356     -2.69606648982717      2.79883361332046
  C   -0.07655890051269     -2.07144291443605      1.92844144993282
  O   -0.49373702895664     -2.05467606522920      0.51961438862761
  H   -0.80586917513272     -2.68172966986662      3.83687239393195
  H   -1.30798017203435     -3.73775439937876      2.52520521498885
  H   -2.07419927654959     -2.14963046630545      2.72657252231610
  H   0.87226042834683     -2.60168771328489      1.98166225367861
  H   0.09690482330759     -1.02542261761392      2.17655904812321
  H   -0.72861353676754     -2.94809335217583      0.24893723264659
  O   -2.89631341342455     -0.01023491435196      0.84792503732243
  H   -2.89617752321899      0.76737516204049      1.42025577534255
  H   -3.79294497803027     -0.12456414575518      0.51578407724615
