33
Coordinates from ORCA-job orca E -2184.994102648876
  Yb  0.40526735396010     -0.08956609407145      0.32386623354192
  C   0.11665480111144      0.32205035149528     -2.20071853348600
  N   -0.17924205715354      0.44537231136673     -3.31817411834967
  C   3.23957880097113      1.25456502621264      1.84897133474888
  O   2.12831672377578      0.72700688499408      1.24267771784226
  H   3.54371104452382      2.22319153369285      1.41488361949838
  H   4.12276920513851      0.59619109389386      1.76950572636088
  H   3.09232139855559      1.43598333336833      2.92820193160790
  C   -1.94389678788164     -1.89911063110421      2.33510907820365
  N   -1.10068641241635     -1.34323322490568      1.74749357235800
  C   -2.50709892799696      2.77007663550608     -1.07035906043192
  P   -2.22420254733750      1.33815106658132      0.03535921705366
  C   -3.17845842563673      0.04519167536112     -0.83855357640026
  C   -3.34962892767276      1.70225425259427      1.43412845118831
  H   -3.56956420804389      2.92142939874450     -1.27280370051615
  H   -1.98078054930101      2.57972228550419     -2.00603455898195
  H   -2.09549329041726      3.67468434371727     -0.62224314518493
  H   -4.20189516109946      0.37284072085482     -1.03526390389595
  H   -3.19426524172277     -0.85355850915231     -0.22227827039539
  H   -2.67862827174237     -0.17889843847598     -1.78093949385419
  H   -2.97823898326853      2.55841392349130      1.99767214099060
  H   -3.35720518723932      0.83500576769615      2.09463782178822
  H   -4.36628517694194      1.91080551361992      1.09407332646230
  C   1.15967118832555     -4.79240632502623     -0.14354445678565
  C   0.83477906586681     -3.51546973922169      0.28897552360311
  N   0.99553477511304     -2.45887333367968     -0.50591147210517
  C   1.46385468107893     -2.68727738897443     -1.73151700720164
  C   1.78354203045209     -3.97100472120096     -2.14790138973932
  N   1.63945476181937     -5.03192821099382     -1.36004020751990
  H   1.02297905204116     -5.64325857090995      0.51209996738972
  H   0.41772222696095     -3.32856862016942      1.27023451319603
  H   1.55818383633643     -1.83102299312198     -2.38736840628587
  H   2.16212920984161     -4.14315931768670     -3.14763887469984
