4
Coordinates from ORCA-job orca E -529.669775716128
  Np  0.67071478314608     -0.38575744940742      0.76776636350093
  Li  -1.32928327269369     -0.63920724383274     -1.85728021384799
  Li  -1.30172589890000      1.96924897378967     -0.45498929491414
  H   2.55678438844761     -0.12239428054952      0.10790314526120
