30
Coordinates from ORCA-job orca E -2046.454708228033
  Tm  0.87316816522540      0.19052950223136      0.24874393979914
  C   1.39610932140664     -1.34664257118684      3.16525416332418
  C   2.18473002806770     -0.56188290438974      2.14403626084193
  O   2.48896394890480     -1.15996056428878      1.07173172097083
  O   2.04086225029283      0.69614543219765      2.14603189826665
  N   0.07214299228948     -1.27902276973954      2.45763820671545
  H   1.35473270658789     -0.85241729502947      4.12991362232074
  H   1.74374080357190     -2.36883175754195      3.26734622111694
  H   -0.63084538138106     -0.87374020396902      3.06254553893797
  H   -0.24464214104722     -2.21128018058350      2.22360325263479
  N   1.10792465409282      1.63289011167948     -2.02863262405905
  O   1.23153913702835      2.28534541893209     -3.00378212921306
  O   2.06358493608226      1.42892625056997     -1.18764781186809
  O   0.00490235216886      1.05272137301893     -1.70116166997456
  C   -0.24231201972526     -3.78889551810960     -2.47434515419366
  C   -0.05211133206017     -2.67781454234236     -1.56138862030702
  N   0.10250208912142     -1.79783474954056     -0.84487915285115
  H   -1.19847688247774     -4.26671646831339     -2.27071481947935
  H   0.56289602919561     -4.50821301853031     -2.33846727718519
  H   -0.23171574368108     -3.41709025232157     -3.49711852625055
  C   -1.32790909243173      3.36942141875234      2.84548564975808
  C   -0.44932479551068      2.41422631353962      2.35843326992581
  N   -0.67169816826016      1.81339585323896      1.18240692731354
  C   -1.76671035638803      2.18276860002215      0.50553059636532
  C   -2.63515937747243      3.13384111436142      1.01645751895537
  N   -2.42151030535660      3.72721961382682      2.18398284810824
  H   -1.13701431038335      3.85558466996461      3.79296213547636
  H   0.44439070488796      2.13061718189774      2.89619831659673
  H   -1.93904627450751      1.72985610870228     -0.46087654849644
  H   -3.51841393824086      3.42295383295127      0.46271224644993
