5
Coordinates from ORCA-job orca E -757.379481514496
  Pr  -0.42934190574022     -1.14566990932627      0.73012557822163
  Be  1.75033904704389      0.60128367128423     -1.43721659813494
  O   0.19184966422716     -3.15217576346599      0.40965669313987
  O   0.86223467378515     -0.09268660591645     -0.58546668773924
  O   -1.68059147931598     -0.85779139257550      1.95496101451267
