16
Coordinates from ORCA-job orca E -1437.932159877194
  Ce  -0.67648338155094      0.59961318879288      1.22945410857297
  O   -0.27646944313184      0.29257216638019      3.15918161795198
  H   -0.23756254155642      0.08440081796218      4.09845211764575
  S   -2.48903270653474      4.96897657178890      0.01718674648865
  C   -1.88351620874032      3.60267737027652      0.40788355493397
  N   -1.40384039208720      2.52697040304320      0.70985360067157
  C   2.37489079511252      0.64056911658836     -0.54206466914570
  O   1.67218731266543      0.73843948984436      0.73649595855150
  H   3.11310051015671     -0.15298040262883     -0.48180841754221
  H   2.83914016252886      1.59579675519137     -0.76670757295733
  H   1.63214616812437      0.39208606915094     -1.29176917354141
  H   2.31340323954338      0.86758729812525      1.44365903246657
  N   -1.57570159692420     -1.41671332405254     -0.49495149222280
  O   -1.97617818723343     -2.24930697464345     -1.21462515974103
  O   -0.42381642251193     -0.84368411521957     -0.62341622085479
  O   -2.23806730786025     -0.96590443059989      0.52297596872231
