4
Coordinates from ORCA-job orca E -1174.099276632673
  Yb  1.05690311802608     -1.23469095444160      0.15969371226941
  Li  -1.79261153435784     -0.52158282446958     -1.50220978900982
  Li  -0.02151704237680      1.59467792742255     -0.44747178505454
  H   1.35371545870856      0.98348585148863      0.35338786179494
