25
Coordinates from ORCA-job orca E -2921.495109958096
  Lu  -0.54257780623246      0.78058637139390      0.28929893837548
  C   2.08165021934108     -0.28153669375367     -1.23015238012888
  C   1.76685230719517     -1.34305969207515     -0.19012770793897
  C   2.62284865689014     -2.46666663367277     -0.14366469103719
  C   2.57403469996599     -3.60197618615965      0.70524080418740
  O   1.78291047406821     -3.87804610219253      1.60981441029362
  C   3.68319006813100     -4.65085647369677      0.44876661703459
  O   0.77002902150688     -1.11788011094465      0.53340547617627
  H   2.95348967304845     -0.52216060116088     -1.83943205729799
  H   2.25267659314624      0.66497366539320     -0.70957962196401
  H   1.20911119698593     -0.16904510810746     -1.88023192668405
  H   3.42757321057844     -2.45679704029710     -0.86811798196127
  H   4.38546672815598     -4.36833605834455     -0.33723205871761
  H   3.20616332505671     -5.59679894228413      0.18204415199917
  H   4.22810718200021     -4.81052344179696      1.38180753540524
  C   -0.50044505850726      2.73068057886031     -1.27701817095052
  N   -0.43828027790085      3.60505454867319     -2.03993569696459
  O   -0.75682771717902      1.46088965766227      2.37912123733528
  S   0.73155992216713      1.86355373261688      2.68328494291728
  O   0.75160782362214      3.29262991832533      3.08346713123179
  O   1.29087090272076      1.74033802790888      1.23120892873936
  O   -2.58244730163509     -0.05418583348998      0.39015285676370
  S   -2.58727518722582     -0.90352402763803     -0.93343455220330
  O   -1.24216889217733     -0.38357877811327     -1.52938085378828
  O   -3.70421976372281     -0.42513477710623     -1.78540533082253
