4
Coordinates from ORCA-job orca E -774.854663473013
  Ce  0.00958198277712     -0.00320362046649     -0.01201792041801
  F   -0.75483876428220     -1.07349808691588     -1.62384061219734
  F   -0.74605433688692      1.93732057042396      0.09597063020780
  F   2.08780111839201     -0.03872886304159      0.10328790240755
