6
Coordinates from ORCA-job orca E -399.076825422048
  Ac  -0.31274309698143     -0.07572932548187      0.60389913067653
  Li  1.64725069229163      0.43062312615411      3.16669704749937
  Li  -1.19977261130320      0.59691051088671     -2.46945944736652
  Li  -1.13028667551516     -2.39338429469534     -1.80669744033971
  H   1.83807662588164     -0.07025310179722      1.52119613903524
  H   -0.84251493437347      1.51183308493361     -1.01562542950493
