31
Coordinates from ORCA-job orca E -1565.176318395527
  Ac         -0.69381245370940      0.44581661765152     -0.14923566243047
  C           2.38962316537796     -0.86442432114783     -1.36865971516925
  C           1.60289862478301     -2.05357144708565     -0.78135092902867
  O           2.23834690768741     -3.07806234351316     -0.49871059440762
  O           0.34854645464083     -1.86356047259606     -0.59252326331351
  N           1.50411994930013      0.21751373411104     -1.82636567127157
  H           3.06926751512395     -1.25085156350141     -2.14336768816227
  H           3.00590972268409     -0.47637178897346     -0.54814214283298
  H           1.00268033457852     -0.03979226650135     -2.67215841755357
  H           2.01828396364762      1.07102586137747     -2.01483665719080
  C          -2.11234907034077      2.62191192154613      1.05734897956044
  N          -2.17334175595455      3.72711187752084      1.43531150008310
  C           0.78183181825059     -2.26122185496171      2.50254046919147
  P          -0.99076498668256     -2.47828156492371      2.17021986653205
  O          -1.68121024259606     -1.30050107284719      1.49729363209584
  C          -1.77242715703863     -2.77759260277452      3.79539813651030
  C          -1.16605796866109     -4.02847486707581      1.24147476966476
  H           1.04755969727106     -2.73458715453829      3.45394897555164
  H           1.00912560250495     -1.18746338076921      2.53474556746473
  H           1.36326168928267     -2.70656007117711      1.68680760375072
  H          -1.34471115501749     -3.65684189128221      4.28808809841302
  H          -2.84807206115626     -2.92265221983246      3.65591399518490
  H          -1.61902825685723     -1.89675506162066      4.42702950463998
  H          -0.71489660893101     -4.86059115460936      1.79276962293209
  H          -0.64025690043438     -3.88774908585031      0.29069327609147
  H          -2.22637587495487     -4.23266585381145      1.06199787877949
  O           0.65194640120323      2.93376970408491     -0.11824093828563
  H           1.11254245705834      2.45248540224377      0.59940158896050
  H          -0.05129042742317      3.43180315865424      0.33400487911441
  F           1.17141425211664      0.72052626818094      1.28437321182138
  F          -1.49310185345354      0.51286309192211     -2.28364077249602
