6
Coordinates from ORCA-job orca E -7281.659387520431
  La  0.97875614777420     -0.30745313340212      0.23384142817603
  In  -0.32172772418343      1.33507170879564      2.58065621482599
  Ge  -0.60220451354216      0.86568074902442     -2.26434901684465
  Se  -1.51262874271484     -1.10406424904407     -1.12559486581256
  Br  3.54822863236029     -1.64078921342316      0.30365972761507
  Li  -2.09041379969406      0.85155413804929      0.27179651204013
