15
Coordinates from ORCA-job orca E -1396.757198563139
  Tb  0.03849636244693      0.78923113415870      0.58516110464884
  O   0.53121730401328      0.76958304216524      2.91217780809047
  H   1.09740776573104      0.06941933878850      3.26240500106258
  H   0.53967549708818      1.48981856461245      3.55302090347282
  F   0.46638980459213      2.65970279567795      0.18495035003630
  N   1.42066253691696     -1.46469956910943     -0.17986330982379
  O   0.55900060476981     -0.85003031407739     -0.92811409033285
  O   1.57009958505123     -0.90605056296582      0.97441051355264
  O   1.99832820918026     -2.42921305153596     -0.51763840015405
  C   -2.81916606946605     -0.74851319711904     -0.46027937536710
  O   -2.22778376659422      0.47085734256925      0.09773368605420
  H   -3.24347419710364     -0.52508794742905     -1.43399116267038
  H   -3.57404566508308     -1.12397924896317      0.22320225043273
  H   -2.01328238562346     -1.46669046688547     -0.57301068962282
  H   -2.89052558591929      1.17015214011325      0.09213541062038
