4
Coordinates from ORCA-job orca E -1433.639133754036
  Dy  -0.05022912882756      0.22576279251601     -0.31181153924697
  O   -1.08746062022469     -1.14583382802388     -1.61939144243474
  O   -0.86004079183319      1.83224962391302      0.13269353505481
  S   2.59422054088544     -0.09028858840517      0.36190944662690
