36
Coordinates from ORCA-job orca E -2086.138073314375
  Eu  -1.15977982278496      0.06535825371224      0.34231413334561
  C   3.61473176272962     -2.78406035330736      4.73218337507005
  C   4.01673488516213     -2.41865456688930      3.45399855439645
  C   3.08842091033031     -1.92396904180673      2.55030601395259
  C   1.75742980742511     -1.78927518624547      2.92415519065594
  C   1.35660559840050     -2.15309633781271      4.20382818273844
  C   2.28371329683417     -2.65261786940183      5.10596602286075
  C   0.75474636857466     -1.23014111937395      1.95348650744627
  O   -0.42832282657699     -1.03920022883385      2.35967773912588
  O   1.11849604018148     -0.95786530906688      0.78227751515508
  H   4.33978017886284     -3.16850369497345      5.43847986568282
  H   5.05513083177523     -2.51607748279840      3.16453016676658
  H   3.37465814332316     -1.62822665782104      1.55062309517908
  H   0.31609394051766     -2.03142450035108      4.47065274097341
  H   1.97052232876248     -2.93583565243808      6.10265018618624
  C   0.02976813548861      2.39570246584914      0.33157340928048
  N   0.53972842167301      3.40515063608877      0.06751687781354
  C   -0.49106794355313     -1.88858394018765     -3.78942912569432
  O   -0.33316155940808     -0.53001966361316     -4.22831065661630
  P   -0.96539660721495      0.58401259251407     -3.22595254955230
  O   0.01753063992163      0.43747425814140     -1.91143659630730
  C   1.44609850809864      0.61869412080934     -2.01563400403914
  O   -0.27475016175318      1.83482735692406     -4.00292726047190
  C   -0.57242948092238      3.12354237861915     -3.44492243148156
  H   -0.71001952629132     -2.49376065489378     -4.66697269616074
  H   -1.28523540543902     -1.98751020685059     -3.04667308335921
  H   0.44025350842466     -2.22763425213184     -3.33463769617212
  H   1.89466493812610      0.03148538345080     -1.22012828082392
  H   1.68166078046604      1.67013135167414     -1.87039114480691
  H   1.78654028023928      0.27590921212014     -2.99118851180811
  H   -0.12144182645148      3.24471382275984     -2.45881577658977
  H   -1.65165248053062      3.26990440095290     -3.36016604529283
  H   -0.16415879458717      3.86175608167143     -4.13040617650932
  F   -1.91314052668956     -1.46999928255362     -0.92862190226526
  O   -2.93513591678175      0.93330737692152      1.07142596876678
  H   -3.38951642633300      1.63528630914193      1.52616839255502
