39
Coordinates from ORCA-job orca E -1981.621272809579
  Ce  -1.07762465643160      0.67567856224717      0.76256681629413
  N   0.27482909173590      0.31778071092951      2.90103392001584
  C   0.01115739968243      1.09790861296631      3.95292122542243
  C   0.56632138171537      0.88532745463808      5.20046420163523
  C   1.43090051014165     -0.18248583558209      5.35729558628701
  C   1.70625619645960     -0.99655679393617      4.27022216769235
  C   1.11050893028336     -0.72242991938501      3.04944089107542
  C   1.34821461612486     -1.54642023342308      1.83467955917674
  C   2.22376738680029     -2.61994936233840      1.82466449758701
  C   2.39585064633936     -3.34852596169030      0.65892694077051
  C   1.69155298954650     -2.98417744061803     -0.47361179128598
  C   0.84183368114244     -1.89756888316249     -0.39417015501209
  N   0.66676944902762     -1.19156058927561      0.72877555618719
  H   -0.66459040996679      1.92518704742578      3.78262958428366
  H   0.32289298310520      1.54543260718074      6.01901493007835
  H   1.88851285856429     -0.38535919260143      6.31523348281091
  H   2.37485671811728     -1.83422449360721      4.38640166147516
  H   2.77311749637751     -2.89288036965986      2.71108130045423
  H   3.07570674950063     -4.18863583714122      0.64019027391906
  H   1.79523652107753     -3.52055301303601     -1.40452415776486
  H   0.28948653277875     -1.56212704834277     -1.26047661792150
  C   -2.21609903243980      1.94918363927617     -5.92888609124394
  C   -0.95212401108890      1.54546531624368     -5.51522299603633
  C   -0.73057109641707      1.23666885432969     -4.18584633015872
  C   -1.78165575645968      1.33646805090551     -3.27542384744041
  C   -3.04932375622522      1.74358321681958     -3.68872747956582
  C   -3.26287515512124      2.04860180109301     -5.02057966652963
  C   -1.55510271717897      1.01488237858036     -1.86867685677614
  O   -0.41040191716605      0.60434366537941     -1.44713106583187
  O   -2.47962912510285      1.13179560967446     -0.99510145055764
  H   -2.38636055553519      2.19025227893105     -6.96926579151822
  H   -0.14463724211527      1.47561681515647     -6.22992968843520
  H   0.24605449358601      0.92660084586380     -3.84217789385620
  H   -3.84851022611080      1.81579273231537     -2.96496249647941
  H   -4.24121264159380      2.36455527217764     -5.35315048347385
  F   -2.45948886558217     -0.40832641429257      1.70887280892903
  S   0.01919491874499      5.25953632684323      2.24679375135243
  C   -0.39723456307499      3.85173373227945      1.71109116085378
  N   -0.71797982324120      2.76198585683577      1.31806454358743
