44
Coordinates from ORCA-job orca E -1865.054577960060
  Gd  0.36638874907256      0.68486434743034     -0.46386709584846
  C   0.67157176460658     -3.43844081969679      0.54861211170618
  C   0.56247876870791     -1.99752384826450      0.10521142698523
  O   1.55199740866709     -1.23195331121781      0.30156258908126
  O   -0.49929618358219     -1.59469896712684     -0.44661523717117
  N   1.49289032534075     -3.53274248125713      1.74761769172537
  H   1.06358800368461     -3.98708491394021     -0.31927384611831
  H   -0.33420952972307     -3.80999562073430      0.73861326073926
  H   2.31771026529495     -2.95884688852408      1.62317854240899
  H   1.79417062481442     -4.48453616446439      1.90243817984424
  C   -3.84894790215940      2.68473482877599     -1.31878161742516
  C   -2.51765700336663      2.40896575034403     -1.04671196668143
  N   -2.07231587194238      1.15339181831555     -1.02477453136816
  C   -2.94733000915868      0.18092721308524     -1.27609221943434
  C   -4.27459379322083      0.47732025552575     -1.54766843646631
  N   -4.73179588779062      1.72417606051337     -1.56861935917556
  H   -4.20705391711479      3.70584440636260     -1.33338526760431
  H   -1.79648526905691      3.19016939942146     -0.84069067803135
  H   -2.57355652402648     -0.83457870943531     -1.25295786574009
  H   -4.98313164567525     -0.31476130231699     -1.75254380951065
  C   -1.16120813288939     -0.73721553173860      2.52375952708112
  C   -1.74208692852712     -0.28398759911676      3.84983396340901
  C   -0.74519280096964      0.79657957048218      4.26421374720811
  C   -0.42795181343198      1.47360923821136      2.93776349256576
  O   -0.63102332176740      0.46265749658268      1.92183068784431
  H   -1.88874127777808     -1.16103169417195      1.83482954614483
  H   -0.34723909236676     -1.45379342772400      2.66852436793287
  H   -1.81863320081650     -1.09897587608123      4.56657920812922
  H   -2.73471523457133      0.14503554612088      3.70325553851066
  H   0.15200280607842      0.33761449466849      4.68082543682649
  H   -1.14158372825854      1.49823697206961      4.99477478335166
  H   0.59561936517433      1.83751269849539      2.87560651033220
  H   -1.10292512368857      2.30510872410624      2.72887171412676
  N   0.71751887276729      2.86109023285429      0.20735118291316
  N   0.81216329680235      3.72884071124903      1.02734204303094
  N   0.89434658941170      4.55621566281944      1.80379203863220
  C   3.24311022499230      0.49260521949870     -3.24471999928357
  C   2.08965094793116      1.45624606206811     -3.02729549307107
  O   0.97244642559898      0.80259622940248     -2.47772528192597
  H   4.09671868162110      0.99942971809180     -3.69760219686791
  H   2.93311913808538     -0.32122797101435     -3.89995969939105
  H   3.56422329293057      0.05868080289079     -2.29617237103336
  H   1.78761661018239      1.90386474289119     -3.98125106469083
  H   2.40984203011791      2.28917692454824     -2.38677955369095
