5
Coordinates from ORCA-job orca E -3360.260992175806
  Pr  0.10284106305733     -0.77548409410420      0.27231362349439
  H   1.70382610710766      0.59208861606360      0.28604464023568
  Te  1.29605150950341     -3.56897473709974      1.05788489765542
  Br  -1.16175743647886     -0.90993217289446     -2.22075530374988
  H   -1.24647124318954      0.01526238803479      1.67657214236438
