6
Coordinates from ORCA-job orca E -3159.045579351181
  Pr  -0.51000487904699     -1.51731242194601     -0.21796563003583
  Ge  -0.60480458050786      1.24949730286377      1.28757538738070
  Sn  -1.32903993530514      1.50623833346263     -1.46331159321218
  O   -0.70737869550968     -3.34036065351791     -0.17272240146688
  Te  1.89826776006612      0.19084201984829      1.15545663402891
  Li  1.25297033030355      1.91109541928923     -0.58902239669473
