4
Coordinates from ORCA-job orca E -956.683400658591
  Th  -0.17842238323588     -1.13472380589871      0.59233256271230
  C   -0.87694258348301     -0.35543163831099     -1.23805453017126
  Sn  -0.54208464556437      1.95363913672697     -0.55004930527384
  I   2.19393961228325      0.35840630748273     -0.24082872726720
