4
Coordinates from ORCA-job orca E -1755.346953743971
  Ac  0.00032464037919     -0.00210623315153      0.00863875099768
  Cl  -1.02190682871192     -1.47426340469986     -1.96589527514175
  Cl  -1.03282658694355      2.44424394874795      0.25789525611836
  Cl  2.65089877527629     -0.14598431089657      0.26276126802572
