7
Coordinates from ORCA-job orca E -517.552608942829
  Np  0.00002768946652     -0.00003077130544     -0.00005278423191
  H   -0.00023565111968      0.00014199904694      1.97732686281279
  H   0.00020985452264     -0.00011018656606     -1.97738180399195
  H   -0.00130169942307     -1.97736841859449     -0.00010670363798
  H   0.00127727248753      1.97733117573336      0.00015477466927
  H   -1.97733424335330     -0.00127656849132      0.00025209358398
  H   1.97736677741936      0.00130277017701     -0.00020243920421
