28
Coordinates from ORCA-job orca E -2187.634384142517
  Gd  -0.28160714786705      0.82741267264704      0.05333996640893
  C   1.40006530110423     -1.36851844089310      2.12302794456044
  C   1.78339861135389     -0.31110757095784      1.10427194669086
  O   1.66095725902842     -0.62651594341017     -0.11407920042026
  O   1.77334955497866      0.88575944020733      1.48983239482408
  N   -0.07168966204083     -1.16252074093875      2.10226882580458
  H   1.83441330148834     -1.18388248130176      3.10223821790991
  H   1.65045715638373     -2.36555434512911      1.77431035786359
  H   -0.39572170256502     -0.68428962109397      2.93155973401699
  H   -0.58415930720473     -2.02798113372787      2.01716125995262
  C   -1.44236913512492      3.23478653420914      2.32200758629482
  O   -0.53129732185675      2.14613755744301      2.11234608736354
  H   -1.14188589584131      4.10533012674032      1.74058297503833
  H   -1.49193571454022      3.48181040554723      3.38151260748775
  H   -2.41371184452359      2.88905254243232      1.98098291949135
  H   0.36243672239609      2.36769942513010      2.39692879449932
  C   -1.77130670016603     -0.85495965732561     -4.18470789671038
  C   -1.69335953339666     -0.39810158818980     -2.87808752156638
  N   -0.51717969620227     -0.29497862788188     -2.25858516348484
  C   0.57049641027175     -0.64451957415034     -2.94605473307388
  C   0.47173780613951     -1.09656415359629     -4.25245500557755
  N   -0.69467962748715     -1.20612487349674     -4.87831658550884
  H   -2.73031358586441     -0.93688652946468     -4.67947910300696
  H   -2.57157763132851     -0.11369056223208     -2.31388628274829
  H   1.52101988108069     -0.56572302615996     -2.43674410177034
  H   1.35987878959329     -1.37659213422794     -4.80384903905344
  Cl  -2.82082593523446      0.42073895661452      0.31507941148021
  I   0.01120964742535      3.34168334320682     -1.41600639676610
