5
Coordinates from ORCA-job orca E -1426.888278096490
  Cm  0.47689754261382     -1.61157386707815      0.16241886727789
  C   0.76274912461224      0.27789158971678     -0.51226777607279
  N   1.07548038246756     -2.75920838117374      1.28524013176363
  S   -0.23871761945380     -0.18546503907089     -1.78748570267026
  I   -1.38191943023983     -0.36868430239398      1.92415447970154
