4
Coordinates from ORCA-job orca E -1281.243937393108
  Cf  -0.36152130298795      0.28723143617949     -0.50107324799982
  O   -0.56263238029149     -1.27403499551579     -1.45524147528166
  O   -0.54071393172526      1.91421600452379      0.34141121613667
  S   2.06135761500470     -0.10552244518750      0.17830350714481
