6
Coordinates from ORCA-job orca E -1577.384089272609
  La  0.11093481528434      1.51046047241587      0.27047127809354
  Al  1.39664986763283      0.49384698914904      2.76267314383703
  S   0.67448930657518     -0.28504950719744     -1.61103526114825
  Li  -1.52973060798501     -0.60827161959481     -1.72983500060209
  K   2.33860346208445     -1.86709865789597      0.31185485103325
  I   -2.99093684359177      0.75611232312333     -0.00411901121346
