4
Coordinates from ORCA-job orca E -1023.577694758446
  Er  0.33085179718935      0.47479133891561     -0.32988605440266
  Li  -1.20728987763921     -1.69647328433219     -2.01138631083521
  H   -0.60236493791193      2.02140717026554      0.45054757029668
  H   2.07529301836181      0.02216477515104      0.45412479494119
