4
Coordinates from ORCA-job orca E -7567.492553126421
  Lr  0.15727284148404      0.06591025882454      1.65904659208236
  Ga  0.22871009898584      0.26934003159396     -2.13742268671971
  As  -1.23036594496612      1.48705238438741     -0.50500016170916
  Se  1.44087300449624     -1.00041267480591     -0.45322374365349
