4
Coordinates from ORCA-job orca E -8315.826387734633
  Am  0.00507730214147     -0.02404095774543      0.01719242150764
  Br  -1.03668794621702     -1.44292520308571     -1.95875369831738
  Br  -1.00956240898471      2.40832354713598      0.23426460596601
  Br  2.63766305306026     -0.11946738630484      0.27069667084374
