35
Coordinates from ORCA-job orca E -2374.584500690478
  Eu  -0.63680690884694      0.47096309171891     -0.06003709157998
  C   -1.01859510176274      2.40605704725106      6.22973233545825
  C   0.32642662175760      2.76018891448230      6.22066313386293
  C   1.07063646104562      2.60830790397750      5.05810961623027
  C   0.49204890325381      2.09917585371656      3.89864089147034
  C   -0.85372280711457      1.74155015557631      3.90859825269783
  C   -1.59951642278568      1.90157391583185      5.07271783371357
  C   1.35493880398573      1.95018373635315      2.62974679968305
  O   0.79629459169591      1.38714760034233      1.65367238579319
  O   2.50755362059871      2.39997696074804      2.70150377392253
  H   -1.60902047309317      2.52314983868030      7.13363057443059
  H   0.79158074320708      3.15396983426343      7.11963094494015
  H   2.11783273360934      2.87906524505582      5.00974844848949
  H   -1.31798890874554      1.34691706043710      3.00528552129436
  H   -2.64750450888304      1.62313797203795      5.06814735558484
  F   -2.21624250409509      0.70588683878066      1.45121826122270
  F   -0.54464250085166      2.38385292125144     -1.07346479276045
  C   -1.02418945233071     -0.47446463526937     -6.48395703792421
  C   -0.30336775980762     -0.54629186495115     -5.29851238105819
  C   -0.94259025217655     -0.43342054528149     -4.06815480931411
  C   -2.32157652638507     -0.25192546567569     -4.02023248185896
  C   -3.04176467741650     -0.18586409183607     -5.20976525548999
  C   -2.40265163293749     -0.29314421235517     -6.43772729731174
  C   -3.06795676567626     -0.13144884329722     -2.68018116911369
  O   -4.30614720702916     -0.07742075265002     -2.74444035392748
  O   -2.34432992835252     -0.11251378128229     -1.65205175699955
  H   -0.51622349941155     -0.56041278043018     -7.43992831842719
  H   0.77060124461844     -0.69033876198793     -5.31893999018721
  H   -0.36739511753966     -0.50091212980650     -3.14829068896033
  H   -4.11325246740784     -0.05039862841969     -5.13261959200940
  H   -2.97579186632147     -0.23569578558884     -7.35864417793604
  O   0.92852873332062     -0.67447888125499     -1.47495563993529
  S   0.76996660722228     -2.12865333942209     -0.91382887340918
  O   2.10861537732557     -2.60235338911896     -0.47023642746684
  O   -0.08884715266975     -1.81826700187715      0.34602200687574
