15
Coordinates from ORCA-job orca E -2487.097231749019
  Er  -0.60256080719147      0.33668766005344      0.05188208607752
  N   -1.09853474293291      2.99915926389447     -0.58150891425328
  O   -1.29974580403549      4.15147449096315     -0.84221094930338
  O   -0.82355591393579      2.13455500976947     -1.47573835568176
  O   -1.14577115376771      2.55355765430594      0.61340568060875
  O   0.03431955397644     -1.69359799775236     -0.96004854743844
  H   0.89234812371891     -2.00839142536711     -0.66353052435451
  H   -0.66940904833603     -2.30825516817831     -0.57714109622466
  S   4.41096218495410      0.29062724222526      0.87177392149399
  C   2.82875437950720      0.37672166773096      0.57142272867695
  N   1.67474072421823      0.43362804746796      0.34916953814474
  O   -1.36049323164696     -0.88476253473876      1.67860685859532
  S   -2.52638862609503     -1.57502950693434      0.86344726915656
  O   -2.55803691311207     -0.58319601660684     -0.35396884620761
  O   -1.94382872532139     -2.83987838683296      0.31953915070981
