5
Coordinates from ORCA-job orca E -569.814735991645
  Pu  -0.70569553332776      0.01498118572521     -0.16994464593883
  Li  2.48350922696611     -0.13376016574985      0.79044729806559
  Li  1.22533752509700     -2.61026962998613     -0.25135654415257
  H   -0.34295378891933     -2.02760223542549     -0.71526424207946
  H   -1.96570742981603      0.10961084543628      1.41817813410528
