47
Coordinates from ORCA-job orca E -2186.025289404326
  Ce  -0.30765871714265      0.17230283733456      0.54549230683496
  N   -1.68953495173607      1.96377356113923      1.39769583670905
  C   -2.62369140113352      1.68807862296642      2.32768306484432
  C   -3.45148279449529      2.65387058335477      2.86209763637081
  C   -3.30231324663165      3.96112157642398      2.42788692926296
  C   -2.34072811562361      4.25589073780122      1.46809760217715
  C   -1.55069054731653      3.24173222290471      0.96482256382089
  C   -0.51585231548863      3.45251500915109     -0.07521204394273
  C   -0.25047144015549      4.67474776093240     -0.66484062033121
  C   0.72338279912847      4.75906660539616     -1.65177361712406
  C   1.41255366329479      3.61690131457802     -2.03554089527420
  C   1.10415032249559      2.43170120271905     -1.40343127135112
  N   0.16739012822860      2.34384157088627     -0.44208740219292
  H   -2.69592582414495      0.65830480150120      2.65348386418145
  H   -4.18732478543163      2.38440570044819      3.60544503736170
  H   -3.92593834134566      4.74866086675527      2.82885484310803
  H   -2.22247083181324      5.27228473854316      1.12568700738822
  H   -0.79246113554414      5.56081144009694     -0.37255626979555
  H   0.93734735765155      5.71055869183391     -2.11973845477432
  H   2.17154459947345      3.64402349479746     -2.80354319926777
  H   1.62577846144157      1.51697317934655     -1.66761054166134
  C   4.38670318855882      0.03594046054696      1.12977723409342
  C   3.08313930840790      0.51562532823759      1.13345128798619
  N   2.10068132784337     -0.20591377861660      0.57998432358021
  C   2.41519281676113     -1.38961202282015      0.03694593679747
  C   3.72324656967783     -1.84885506801203      0.03944188874967
  N   4.69853570924393     -1.13303438345245      0.58517358701495
  H   5.18841794057113      0.61001609557964      1.57652333706981
  H   2.83074481423305      1.46942104789830      1.57871336339479
  H   1.61518391571020     -1.98489458443716     -0.40169901797255
  H   3.98367175904594     -2.80307461151431     -0.40021351019310
  C   -0.96929857381643     -2.66421878533937     -2.32111404736433
  P   -1.91150457756202     -1.54760557957400     -1.24583233682428
  C   -3.03022402343929     -2.60724331848010     -0.29094350498184
  C   -2.96803418311422     -0.57070423208916     -2.35046431732282
  H   -1.66588259126186     -3.23208269909038     -2.94005221253408
  H   -0.38891839348212     -3.37183250397425     -1.72954705935927
  H   -0.30329602618366     -2.10725221438975     -2.97940731740999
  H   -3.63241108954905     -3.20379550975070     -0.97801733966021
  H   -3.70120369285708     -2.00749714522788      0.32323077427376
  H   -2.46514150691804     -3.28020275699428      0.35259591208775
  H   -3.62949419694754      0.08001815588801     -1.77891382470766
  H   -3.58368005440838     -1.24613236371413     -2.94666670275525
  H   -2.36729773181208      0.03514955651944     -3.02811346960543
  S   -0.31792421938376     -2.18727538830134      4.72353459237335
  C   -0.39635258427575     -1.43414542628626      3.40322478395384
  N   -0.46645678875279     -0.82296479151642      2.32527526297131
