39
Coordinates from ORCA-job orca E -2696.106530349340
  Eu  0.16627748683877     -0.36525770302624      0.29253103732234
  Cl  -1.51369767310910     -0.53318346395293      2.39127865984696
  C   1.89275183584944      0.18077949813356      3.81869641883033
  C   1.22810562192053      1.40526154723655      3.24039572867004
  O   1.19720811794325      1.26532314365700      1.80729185215768
  H   1.93254513178920      0.26298893499644      4.90461761178950
  H   2.90505591276584      0.07286291048416      3.43386800189223
  H   1.32630949265385     -0.71437724120285      3.56380915928358
  H   1.78993462780171      2.30853120971469      3.48392023065164
  H   0.20647510954978      1.50557478349747      3.60872673916438
  H   0.86389771680709      2.06382210106020      1.37868980805620
  O   1.56161483514800     -1.97162837850352      0.78911144201306
  H   1.62982557653830     -2.80897201474775      1.24401880564537
  F   -0.03553579380233      1.63115891761004     -0.49451382748183
  C   -5.20085662848725     -2.80263920161129     -4.04619520607567
  C   -3.83675986222919     -2.56460904994974     -4.15421113159576
  C   -3.11772193905682     -2.15490482886389     -3.04442640071859
  C   -3.76894048781344     -1.98684191634488     -1.82597013985171
  C   -5.13494518696362     -2.22784225658287     -1.71521827715876
  C   -5.84916079702070     -2.63510113841073     -2.82974209116686
  C   -2.97489575529083     -1.54178212456727     -0.65936353598750
  O   -1.77434057959085     -1.28562066573574     -0.76236409816890
  O   -3.62957769180207     -1.44282604249151      0.46428188324077
  H   -5.76176555927788     -3.12179120939234     -4.91446888379594
  H   -3.33586585983417     -2.70045914363961     -5.10274252633933
  H   -2.05440938997516     -1.96607263016530     -3.10206317655849
  H   -5.62582702482068     -2.09373366183270     -0.76231423492007
  H   -6.91103821882370     -2.82228676182975     -2.75087538734909
  H   -3.00675354760539     -1.13487017471681      1.18120556580779
  C   0.76987150808665      1.65020528291323     -3.39809289166951
  C   0.70925885340199      0.32104376431677     -2.81908757788469
  N   0.65813436268864     -0.70748047613529     -2.30992621672584
  H   0.09248416467930      1.72263848955734     -4.24563298127821
  H   1.78612010876681      1.86955650737901     -3.71691963289938
  H   0.46461716097910      2.33802048873496     -2.60937446798345
  F   4.92135510483790     -0.56558887208288     -0.72447617988244
  P   3.64285219574703     -1.34144908676045     -0.13566235298658
  F   2.68959719265349     -0.03758656123311     -0.37150984391730
  F   4.01559987805756     -1.04766297551079      1.37220811802472
