24
Coordinates from ORCA-job orca E -1568.718217658448
  La  0.23954805131057     -0.23308404120586     -0.04055074707883
  N   1.30152997068483      0.28957606139852      2.20781358286644
  N   2.74712276668909      0.74043337672012      2.46621111979570
  N   1.91150387724641      1.48552320586194      2.85461414766865
  C   2.14040661677578      2.72000410006132     -0.94774892716831
  N   1.48941932463029      1.80588127425018     -0.61632521825190
  C   -0.95784443472842      0.42731872490037     -5.36795447371161
  C   0.27878385556140      0.76985847491270     -4.84684946953935
  C   0.47078627960638      0.68543573950461     -3.47955806578612
  N   -0.48761639679536      0.28708976970325     -2.63713226051513
  C   -1.68181093732895     -0.03476792061306     -3.14414374217660
  C   -1.95643641780530      0.01936069816545     -4.50036456550663
  H   -1.14015429100994      0.48007029052639     -6.43332451352091
  H   1.08878350331449      1.09883507864441     -5.48133312449297
  H   1.41859134859537      0.95557536191508     -3.03427556706024
  H   -2.43954723866989     -0.33444135159290     -2.43203880294785
  H   -2.93914920146493     -0.25312315043941     -4.85684779611277
  C   -2.38159583873655     -0.07895514075637      0.07833297947290
  N   -3.52492920557048     -0.06304357026469     -0.11116308719474
  F   -0.02255131654389     -1.65475806615514      2.14085204810141
  P   0.82060007581378     -1.22995850636401      3.53516432269537
  F   -0.21663993803490     -0.17239268095194      4.13681242431867
  F   0.03537644109435     -2.45705015454532      4.29483302431010
  I   1.61532310536584     -2.67898757367569     -1.34372328816506
