33
Coordinates from ORCA-job orca E -1607.248702243195
  Dy  -0.16094410460398     -0.19839842620488     -0.42358424651496
  N   -0.87198607926176      1.43547568350297      1.27104017381903
  C   -1.02458465454876      2.81370022728547      0.73116261539743
  C   -0.02940708364974      3.03374285855856     -0.38922917768427
  N   -0.28979831677050      2.05234662975097     -1.49269569936006
  H   -1.68921788275807      1.18888238265604      1.82275441521785
  H   -0.09492007014098      1.41441078084431      1.92971673980490
  H   -0.88208902971597      3.56412755290938      1.50727848245232
  H   -2.04386097795535      2.92190700330239      0.35793952614983
  H   0.98955184528460      2.87279434432024     -0.03384296779587
  H   -0.09449921169072      4.05595599520050     -0.75827248538845
  H   0.42220356115837      2.18473714613250     -2.20926713539134
  H   -1.15950829923888      2.31470052650597     -1.95270622142134
  C   2.44748110341167     -2.18572025791879      0.09929451871315
  C   1.69277388696756     -1.12610347063434      0.85947363688152
  O   1.84774068489841      0.08157272237422      0.45414456145085
  O   0.61002502969509     -1.44043912258012      1.41333360863853
  N   1.57809938644788     -2.16195385256716     -1.13718628409521
  H   2.41833279371218     -3.15279838838616      0.58882018783456
  H   3.46543237686050     -1.89265394775581     -0.13112043064528
  H   1.15409908743758     -3.07481346504148     -1.26544989328770
  H   2.16065468135924     -2.00992523819869     -1.95378661044469
  C   -4.43876942990662     -3.00971475274613     -0.23087837853232
  C   -3.53340327448783     -3.19025013147828      0.80479738388925
  C   -2.36708275707235     -2.44987339473181      0.81619205110600
  N   -2.08720349988392     -1.55378426618440     -0.14623057725785
  C   -2.97367808814850     -1.38444179039121     -1.14553248285721
  C   -4.15455544162129     -2.08692392621490     -1.23031080647714
  H   -5.35626224328853     -3.58096946457656     -0.26307002696571
  H   -3.72422496928677     -3.89921305581887      1.59675291664495
  H   -1.62735434722388     -2.56294443959497      1.59711344333410
  H   -2.72511589312439     -0.65355756011041     -1.91453740168137
  H   -4.83092878285420     -1.91757490220853     -2.05501343553353
