6
Coordinates from ORCA-job orca E -13635.590178344464
  Gd  -0.13266077542736     -0.25177492597677     -0.00139907098622
  Br  0.78119305576351      0.41183140579272      2.54283678913519
  Br  0.01042168087337      1.01498887168021     -2.48584426876493
  Br  -1.38439843772667     -2.52755456032245     -0.09037084816880
  Br  2.59216345359671     -0.52956697065096      0.50692718062212
  Br  -1.86670897707955      1.88207617947726     -0.47213978183735
