40
Coordinates from ORCA-job orca E -2872.602509678306
  Yb  0.76650439983336      1.88217910865790      1.32929841826944
  C   5.16773974659553      0.34562572686769      0.80675494231498
  O   4.36471996842718     -0.12887741970413     -0.29242683080007
  P   3.01738357643079      0.67306717601633     -0.61742548107728
  O   2.70443054720717     -0.11231690876138     -1.98824682847494
  C   1.50069691881256      0.27079762288753     -2.67118825587390
  O   1.91964139313616     -0.02234217220257      0.42677262632088
  C   1.90800744537887     -1.44143111885494      0.69906973288786
  H   4.76237407641504     -0.00682339642357      1.75413563581203
  H   5.21067705031384      1.43550768013861      0.81403409309137
  H   6.16488695715097     -0.05535161128423      0.65613898669987
  H   1.24862478990173      1.31673383713053     -2.48547057909126
  H   0.67300503594851     -0.35461933652693     -2.33685635591704
  H   1.66996354986200      0.11444277016438     -3.73226683183657
  H   0.89705339565853     -1.69926772946366      1.00243418860424
  H   2.60386203811918     -1.65175692820633      1.50766121074466
  H   2.18464954050192     -1.99102859491719     -0.19787592065389
  C   -0.53211478593896     -0.32975649188950      3.80767226476106
  O   -0.59649977403154      0.31838176667810      2.52894707612773
  H   -1.09193239841771     -1.26418359788223      3.78737380095538
  H   -0.92403434891431      0.32061080833606      4.58854732871335
  H   0.51643322450955     -0.53392645069906      4.00908159608818
  H   -1.49596707335810      0.59154510959186      2.31629193834331
  C   -4.37760293188735      3.70958957252876     -3.04570951814432
  C   -3.05072273666402      3.83572091923660     -3.43506069803430
  C   -2.03602801386018      3.50551448910761     -2.55086357989223
  C   -2.34783578129963      3.04859314709609     -1.27528969733994
  C   -3.67673828099364      2.92600052707029     -0.88613364373661
  C   -4.69075618536006      3.25542618518185     -1.77149914007622
  C   -1.25132285805965      2.69042779372162     -0.32341312824717
  O   -1.54959110234721      2.28886148418744      0.84162944832346
  O   -0.04905638872080      2.79069340437975     -0.70608517535525
  H   -5.16953088647968      3.96824515247747     -3.73605600562482
  H   -2.80915330584721      4.19386116660353     -4.42667712622915
  H   -0.99615198015970      3.60116087629698     -2.82975983171127
  H   -3.89734625243684      2.57549656718261      0.11204538231235
  H   -5.72499247849260      3.16102343691397     -1.46928383582503
  S   3.35137981663828     -0.08390338920794      4.21385538250479
  C   2.77173629172899      1.28385946612511      3.54859254605323
  N   2.33429242189543      2.25520285874620      3.04786096937907
