7
Coordinates from ORCA-job orca E -2793.486824719323
  Lr  -0.00091349542291      0.00024505909573     -0.00009684058601
  I   -0.32229613624344      0.61894345417341      2.87823278916999
  I   -0.61490329701042      0.31979036009679     -2.87965511253757
  I   0.61064429336859     -2.87833761263894      0.33245528070400
  I   0.33037889777309      2.87965625646454      0.60800014339662
  I   -2.88029001729997     -0.32432420831379     -0.61154107192389
  I   2.87738975483505     -0.61598330887774     -0.32740518822314
