4
Coordinates from ORCA-job orca E -1116.066683298975
  Md  0.19720908974272      0.08424055095983     -0.36729341862984
  O   -1.00157345009470     -1.11516985456108     -1.55142615145911
  O   -0.72515672011158      1.82480806212723      0.12331425727813
  O   2.12601108046356      0.02801124147402      0.35880531281082
