5
Coordinates from ORCA-job orca E -1064.994028407375
  Dy  -0.47501694838729     -0.28400272192042      0.65996236879767
  Be  1.51813642030670      0.95727721438374     -1.95801638158010
  Be  -0.50121034531958     -3.59165993663241      1.84987324783382
  O   0.69742684286485      0.52864885297114     -0.90897012866899
  O   -0.54484596946468     -2.25730340880203      1.42921089361759
