19
Coordinates from ORCA-job orca E -1680.885326103376
  Sm  -0.99614579378433      0.53109052871689      0.95283398774070
  C   1.72755993696618     -0.11094194803644      2.90949599869817
  C   2.14562504277029      0.72178241281519      1.68424429205587
  O   3.30644942906828      1.01653974744100      1.54513596654038
  O   1.15485282613581      1.06752376396649      0.90606189381640
  N   0.35355588979072     -0.64731302755469      2.79710049245047
  H   1.77276711246097      0.55811282563024      3.76860394961922
  H   2.47214958208900     -0.88910776350631      3.06679571181514
  H   -0.05519327146324     -0.79490628581522      3.71195985296805
  H   0.35995088484308     -1.56501576253633      2.35775454919879
  C   -1.93259952539005      2.90760002181895     -1.49235852893700
  O   -1.71385220059046      2.59780480926293     -0.17768604391027
  H   -0.99260254504282      3.36700989703645     -1.85012152863861
  H   -2.75112486008932      3.61395592157923     -1.62168564237823
  H   -2.06409997827879      1.99176638257668     -2.07897799284970
  O   -1.44626357007101     -1.63959251829353      0.30265343259776
  S   -2.92611538435419     -1.13539737063092      0.29041356752627
  O   -3.01170104745552     -0.47496677677361      1.69064353929156
  O   -2.74311252760459      0.12675514230295     -0.60606749760500
