7
Coordinates from ORCA-job orca E -1039.423524739066
  Pa  0.00000420226953      0.00000082654138      0.00000302422905
  F   0.00009134386369      0.00007977536522      2.03833558906650
  F   -0.00007705576134     -0.00008348347974     -2.03832715826662
  F   -0.16214773120184     -2.04126002588455     -0.00008905339223
  F   0.16214186752538      2.04124739008678      0.00007704384928
  F   -2.04125471229464     -0.16214328192379     -0.00008083965010
  F   2.04125208559922      0.16214879929469      0.00007139416412
