4
Coordinates from ORCA-job orca E -2563.635617450497
  Tm  0.54253357430633      1.18530713816523      1.48620965022603
  Ca  0.90455451985213     -2.11016948889425     -2.84739213226075
  P   -1.64086701338442      2.57325286299987      0.70177672344734
  Cl  0.79026891922596     -0.82650051227085     -0.77719424141261
