6
Coordinates from ORCA-job orca E -655.589317810244
  Cm  -0.52551408968438      0.03953391756126      0.57841476468155
  Li  1.76635176664584     -0.35104738901944      2.89802002710627
  Li  -1.03289852752774      0.07599328997650     -2.35078741727668
  H   -0.85279407799459     -1.16939870541130     -1.18314670345522
  H   1.48445150604269      0.11540327494633      1.21447475200303
  H   -0.83958657748182      1.28951561194665     -1.15696542305895
