4
Coordinates from ORCA-job orca E -1458.584389064330
  Sm  -1.42522843666828      0.31057858956983      0.21303239669828
  Sb  -0.10744069088019     -1.94095022728325     -1.51261243089987
  S   0.38543002901342      2.03967949287339      0.70012667479443
  Na  1.74372909853505      0.41258214484002     -0.83714664059282
