6
Coordinates from ORCA-job orca E -533.561996069068
  Pr  0.02255787812659     -0.95429084604125     -0.38000013611026
  Li  1.27004388007983      1.08262990001149      1.47469417474405
  Li  -0.50004178012169      1.99741098556609     -0.81838361315577
  H   -1.60108381355032     -1.95097383531627      0.40673774431418
  H   1.54261343989150     -0.67974123626500      1.13930241680839
  H   -0.73407960442592      0.50496503204494     -1.82234058660059
