18
Coordinates from ORCA-job orca E -4461.583642256576
  Er  0.05749462301361      0.22957296918467      0.19907733463686
  O   -1.42627355313920      0.33878535907464      1.99081922647464
  S   -0.12270648207655     -0.04957645170897      2.73388511037239
  O   0.30665413125066     -1.27956628493296      1.88623144983019
  O   0.84989812162732      1.01528515495478      2.12511236902468
  C   -2.27592295439356     -2.17986388699743      0.10987797942739
  O   -1.48258648286393     -1.27194193459889     -0.68774566637508
  H   -1.66753277087177     -3.02104498825912      0.43263862126138
  H   -3.13335137801654     -2.51422932863090     -0.47023477693946
  H   -2.59449880575576     -1.61507771002917      0.97918046212766
  H   -1.15114738970018     -1.70208406225005     -1.48308530746847
  C   -2.03972870349812      4.50103990674829     -1.42883937586745
  C   -1.46630567381929      3.24172147506305     -0.99004846285094
  N   -1.01382767815264      2.25109371174652     -0.64424482452183
  H   -1.55492482490271      4.81857660774708     -2.34919420889750
  H   -1.88846432081628      5.25329784526126     -0.65803893270013
  H   -3.10519622368332      4.37119249082319     -1.60428334402577
  Br  1.33492036579829     -0.15318087319597     -2.13270765350857
