4
Coordinates from ORCA-job orca E -1418.598065356912
  Ac  0.06760648948143      0.19477648516012     -0.10010256561864
  Al  -1.21070959505439     -1.91396363315515     -2.23504850022903
  P   -1.01940448723560      2.63127809201075      0.48904810301847
  Cl  2.75899759280857     -0.09020094401572      0.40950296282920
