5
Coordinates from ORCA-job orca E -700.672409446561
  Bk  -0.59247851799831     -0.87729105472096      0.11014787369668
  Li  2.54255294301725      0.04289761403746      0.29685798692647
  Li  2.01935725392212     -2.99058324619381      0.94398670926160
  H   -1.41964387116716     -0.76874878803366     -1.71887866383777
  H   -1.85529780777391     -0.05331452508903      1.43994609395303
