7
Coordinates from ORCA-job orca E -15955.150971912892
  Np  0.00000106642762     -0.00000094631538     -0.00000144760593
  Br  0.00000586301951     -0.00000525505879      2.58165861248358
  Br  -0.00000039168930      0.00000036699458     -2.58166442480712
  Br  0.00000054132950     -2.58166279771496     -0.00000398447603
  Br  0.00000029423162      2.58166064972970      0.00000310730902
  Br  -2.58166037741659     -0.00000088526325      0.00000229813635
  Br  2.58166300409764     -0.00000113237190     -0.00000416103989
