4
Coordinates from ORCA-job orca E -3453.769497863419
  Nd  0.05594410550315     -0.54198563516047     -0.76967148038180
  Cl  -0.92243168662337     -2.38341752337335     -2.39202458686474
  Sr  -0.29576468662255      2.89232774716624      0.92015188152324
  Se  1.75874226774276      0.85496541136757      0.80494418572331
