25
Coordinates from ORCA-job orca E -1726.089019570354
  Sm  0.60184842267716     -0.07942173974601     -0.15341688366197
  C   2.88718653391176     -2.47677755502761      0.04752526125066
  C   1.79489806440256     -2.88427751789604     -0.93781812608972
  O   1.79014403655391     -3.91321265202916     -1.52736440794250
  O   0.82650173039551     -1.94368618632055     -1.01816041869721
  N   2.95801954594257     -0.99074809711161      0.20087185247746
  H   3.83606388495840     -2.90472386182349     -0.26478405256256
  H   2.62771558820125     -2.91402136498386      1.01216096161348
  H   3.65715004816894     -0.64241287997521     -0.45006940192319
  H   3.32488040896316     -0.77032120925772      1.12249643611619
  Cl  0.59304243462567      0.59042733800237      2.29286763396520
  C   0.72691444086889      5.72393850204949     -0.33698041488653
  C   0.53844274046987      5.05689155711509     -1.53030206620436
  C   0.52991977939535      3.61126254333250     -1.55244667567367
  N   0.69088145040158      2.84880622608642     -0.47608505348106
  C   0.87104223335252      3.50132116355309      0.67960514974407
  C   0.89439076021427      4.94223079472445      0.78888756723653
  H   0.74049565382639      6.80398646244477     -0.28668986008006
  H   0.39398342550735      5.58349961186691     -2.46537404032674
  H   0.38354756025221      3.11360850790715     -2.50436909779763
  H   0.99945233575888      2.88654015285493      1.56669434542816
  H   1.04577387127874      5.37442641704320      1.77022100488974
  O   -1.73054304644345     -0.69082599269713     -0.01885768466628
  H   -2.33897874027089     -0.51586925577524      0.70966287117018
  H   -2.04277316341269     -1.49544096433687     -0.45497489989817
