30
Coordinates from ORCA-job orca E -2102.177310674068
  Lu  -0.28194685517810      0.45739894512697      0.63262729789281
  C   -0.14891218832088     -2.34260026768668      1.59420984826207
  C   1.21640675953837     -2.11057050764616      0.91221974207366
  O   1.94709792688034     -3.03913119255718      0.66055271362630
  O   1.41679020341780     -0.85163899751757      0.62172131960877
  N   -0.43764379725336     -1.17580444838150      2.42504303723353
  H   -0.15552224225030     -3.29923771599112      2.11675542525165
  H   -1.49012186063594     -3.28299291533430      0.26092871586106
  H   0.27530575170325     -1.03287214986970      3.13135825480091
  H   -1.33535050885200     -1.27131591351326      2.88575692132817
  C   1.89192007075568      0.01752831004017     -3.49828477283102
  C   1.60581927229666      0.17005349726907     -2.15040558936754
  N   0.37081455330312      0.46627355594111     -1.74159426397506
  C   -0.57270445096733      0.57657550779019     -2.67831602999794
  C   -0.26895552965967      0.41003707143455     -4.01935220826131
  N   0.96209657759673      0.13936276244234     -4.43801719172006
  H   2.89798314646735     -0.21710595130776     -3.81989033461643
  H   2.35560803115190      0.02382660301758     -1.38590072323501
  H   -1.58043140945373      0.77858054681103     -2.34521453419412
  H   -1.04309910232426      0.49441100712419     -4.77056020670181
  C   -1.69718489307265     -1.26119326895669     -0.01622679503667
  N   -1.22423048604701     -2.33544760127358      0.53387976452353
  C   -2.29924296453685      4.57538954580816      0.95190928130587
  C   -1.89961922496695      3.37044589694951      0.25392119307542
  N   -1.55065367841025      2.39689068104929     -0.24130244032913
  H   -1.92204893948310      5.45121954641782      0.42926498109571
  H   -1.86432578943757      4.51933534311565      1.95276198549557
  H   -3.38356260537458      4.62247268835586      1.01952728891064
  C   -0.45499565811399      2.75094086340715      3.16542220485615
  N   -0.27597962939082      1.87562729046585      2.41208295962742
