4
Coordinates from ORCA-job orca E -3719.693703234802
  Pr  0.19146172810655      0.18926809452252     -0.39805613740665
  P   -1.23456911571736     -1.56752904610957     -1.90987068748091
  Se  -1.11853259621907      2.36790300217470      0.37354694570023
  Cl  2.75812998382987     -0.16775205058766      0.49777987918733
