4
Coordinates from ORCA-job orca E -2216.187310842738
  Fm  0.02019709038790      0.02805829414506     -0.03594297328220
  Cl  -0.91628898105473     -1.32746014256864     -1.81792079580397
  Cl  -0.93688257045771      2.24600417113771      0.20763917227810
  Cl  2.42946446112454     -0.12471232271412      0.20962459680807
