22
Coordinates from ORCA-job orca E -1265.044693804005
  La  -0.22148284951766      1.35174261710259      1.36733467706013
  C   4.03127782737853      0.62400747068227      0.03733349868916
  P   2.60492566546256     -0.44553826898917     -0.00019166339879
  O   1.59058620723099     -0.00296744173636      1.07847243839766
  C   3.11260488324741     -2.12581154243848      0.31426823540551
  C   1.87088343395983     -0.35360245213940     -1.62350040828447
  H   4.50300556438502      0.57623177407921      1.01775767609695
  H   3.70877325455934      1.64618730630789     -0.16150197222855
  H   4.75127581523114      0.32063273470232     -0.72204928266177
  H   3.83683058250789     -2.44512380321052     -0.43447380343855
  H   2.24251563472645     -2.77969938432293      0.27096615633563
  H   3.56459710282180     -2.19359176121893      1.30263090580675
  H   2.58822660278609     -0.68388165791688     -2.37477161411658
  H   1.59164303856504      0.67995341975543     -1.83262441591617
  H   0.98541232076198     -0.98924112980391     -1.67693524469672
  C   -1.96184457982203      1.44621565333407      4.90243934046910
  O   -1.40402941680613      1.42113536621280      3.91456281767168
  C   0.58035031479081      3.79730665090024      0.58815736759351
  N   0.97521314927622      2.94137377601733     -0.10867944889276
  S   -1.92039244060672     -1.76622081932339     -1.97404922403543
  C   -1.75332625478671     -0.68080907248047     -0.84806340280090
  N   -1.60494585615211      0.14090056448632      0.01151736694454
