4
Coordinates from ORCA-job orca E -1369.891247457066
  U   -0.06830655787410     -0.12089351081012      0.20294004149587
  I   -1.08212834027319     -1.52183169792406     -2.11475489712825
  I   -1.07644009859103      2.58894020329141      0.22387181806050
  I   2.82336499673833     -0.12432499455722      0.25134303757188
