5
Coordinates from ORCA-job orca E -1167.728739831837
  Yb  -0.42197817737621     -0.78525623931547      0.10069174103562
  Li  2.50121943559042     -0.26974346313652      0.39277499716142
  H   1.41519329712389     -1.61366252205455      0.55525806878474
  H   -1.19139841127071     -1.26551567909895     -1.63975379199933
  H   -1.60854614406738     -0.71286209639449      1.66308898501754
