5
Coordinates from ORCA-job orca E -1666.016869527961
  Ce  0.14701935670366     -0.92782276260335      0.21096802466852
  I   2.29023298792051      0.91305662770429      0.07804919734894
  I   1.11538424010345     -3.48117210998554      0.94505888282445
  I   -1.12708684717264     -1.07114441987927     -2.30886873439273
  I   -1.73105973755498     -0.07995733523613      2.14685262955082
