7
Coordinates from ORCA-job orca E -1005.551124865711
  Th  0.00000287814836     -0.00000752132829     -0.00001250468935
  F   -0.14388256863816      0.14388367376869      2.10452034209648
  F   0.14395835068122     -0.14395391481954     -2.10453458184755
  F   -0.14125050941831     -2.10518640131794     -0.14266770789421
  F   0.14117500146617      2.10518003166338      0.14267295080179
  F   -2.10517856405012     -0.14117638028957      0.14267845990568
  F   2.10518541181084      0.14125051232326     -0.14266695837283
