7
Coordinates from ORCA-job orca E -34.668856517799
  La  0.00000625570903     -0.00002296325693     -0.00004356716953
  H   0.00000454313022     -0.00000141291769      2.23242972876762
  H   -0.00000831653894      0.00001232314978     -2.23246965301155
  H   0.00000467951108     -2.23246187401412      0.00001951374559
  H   0.00000195660761      2.23245978261237      0.00001677195972
  H   -2.23248258591382      0.00000343403284      0.00001767008394
  H   2.23248346749483      0.00000071039374      0.00001953562422
