5
Coordinates from ORCA-job orca E -5423.961118344288
  Cf  0.22812070446783     -1.16493339366244      0.27250182303742
  H   1.91292124538435      0.34510572607759      0.31736296908589
  N   1.20103090834016     -2.77507644033734      0.55072171599659
  Se  -1.01505406794336     -1.16724278383369     -2.20358913921266
  As  -1.63252879024899      0.11510689175588      2.13506263109275
