4
Coordinates from ORCA-job orca E -3491.181619520059
  Cf  0.32226435578839      0.49311438782396     -0.11685322821243
  Ge  -1.09185701545838     -1.63909267606918     -1.98657597758059
  P   -1.24422494294316      2.36485068411224      0.34688797214012
  P   2.61030760261315     -0.39698239586702      0.31994123365290
