5
Coordinates from ORCA-job orca E -837.666265457429
  Sm  -0.76341099796913     -0.63506080945054     -0.59434940414564
  Be  1.24284141611082     -0.54838416235427      1.80924880566771
  Be  1.49542411483932     -2.09861202280171      0.55589705439884
  O   -1.47537931424014     -1.57206067716118     -1.95860869423129
  O   0.19501478125912      0.20707767176771      1.25987223831037
