5
Coordinates from ORCA-job orca E -3723.618088144898
  Np  0.55597511001060     -0.58533246768973      0.47275749691483
  Se  2.81662076962587      0.55068611679474      0.20432082384056
  Cl  1.21661155881747     -3.00994360476550      0.88777992321184
  Li  -2.03646785551529     -0.94911411086668     -1.40105047361274
  P   -1.85824958293865     -0.65333593347282      0.90825222964550
