24
Coordinates from ORCA-job orca E -1444.659572377967
  Gd  -0.28064020269418     -0.23254462254567      0.93175147904618
  C   3.00676576335604     -1.33520224628003      0.98396469963352
  C   1.86638784608637     -1.16968685918677      1.96946072955701
  O   0.94209500132672     -2.03765273011707      1.89552307481703
  O   1.68221030067061     -0.03329500192440      2.46477111343100
  N   2.30328680175477     -0.89667836996940     -0.25270770561738
  H   3.37442202552674     -2.35764750444231      0.92555627466733
  H   3.81451391256077     -0.64550736958405      1.20778784886865
  H   1.88679812263504     -1.68849283850583     -0.72836721065225
  H   2.93675068590647     -0.44674318106718     -0.89817099769633
  N   -2.40654641135063      0.38987287828092      1.63023985989383
  N   -2.79023962097258      1.42250278825737      1.16390573846159
  N   -3.13187150950956      2.41569893110304      0.71004377592715
  C   0.02170806676178      2.14060011690200     -1.52235569806019
  O   -0.32947673405203      1.98928434779996     -0.13822617080431
  H   0.36862115300818      3.15493071349054     -1.71099868258079
  H   -0.82886149244234      1.90718009740294     -2.16069227871836
  H   0.82253732900573      1.43636812395876     -1.72776095538898
  H   -1.11628317937214      2.52568973008433      0.05005952327220
  C   -1.97181576517412     -1.28939248893781     -1.49782669364780
  O   -0.69592277521391     -1.13142392904220     -0.92734631248014
  H   -2.22489015392746     -2.34876586567414     -1.58871335749550
  H   -1.99717125698798     -0.83953289542884     -2.49524333814929
  H   -2.75987790690228     -0.81286182457417     -0.90095471628416
