28
Coordinates from ORCA-job orca E -1736.735345811562
  Pr  -0.77391468168937      0.72075000981589      0.45496189116906
  C   3.28666484884268     -2.83110763662463      4.53934433474557
  C   3.23105902943506     -3.12196583590379      3.17736186277502
  C   2.44377394925209     -2.35493716214409      2.34740832749294
  C   1.70998204323351     -1.29142662507712      2.89755667935086
  C   1.76894603988418     -0.99814534326133      4.27041201651624
  C   2.56092177552982     -1.77531886133517      5.08641586973142
  C   0.87215603688581     -0.48995340061658      2.07091757434813
  O   0.81335345121438     -0.66251384534299      0.75152980206133
  O   0.10401070877113      0.44326969824112      2.48664044589703
  H   3.90497372998581     -3.43913549071403      5.18566608402555
  H   3.79993641401208     -3.94820682351481      2.77735995761998
  H   2.38132440357544     -2.57068249585919      1.29010920475179
  H   1.19515404552794     -0.17502702572033      4.67202670147522
  H   2.61742073691762     -1.56883596401835      6.14507973435899
  S   -4.59313257138457      2.60493816604909      1.19800770905738
  C   -3.12070306559109      2.51165101363870      0.79520541814750
  N   -1.92739782385545      2.49974404391228      0.47015424250296
  F   -2.39750152707497     -0.31760990369590      0.83094457362395
  C   -0.76854499975270     -0.94280786878292     -4.32956709993867
  C   -0.77224435992475     -0.40312403294853     -2.98596877837266
  N   -0.76977767528043      0.02564772405766     -1.92074055909458
  H   -1.79505023604153     -1.06359338193551     -4.67255677843147
  H   -0.26840284424700     -1.91039204322498     -4.32563953016908
  H   -0.23866650102624     -0.25907339210855     -4.99121855091689
  O   1.04392544831895      2.27499300099943     -0.10195759739900
  H   0.96098238840189      3.23531769081836     -0.16092568204780
  H   1.97645123607954      2.06764578529635     -0.24082785328103
