5
Coordinates from ORCA-job orca E -1125.377258010933
  Dy  -0.60652977223726     -1.50818449649917      0.27851111405888
  Be  1.37760403882244      1.08589136462402      1.15520192511958
  O   0.57022060473143     -2.88009406610325      0.50823462745915
  O   -0.95939500593857     -1.55905192705951     -1.74257345958601
  O   0.30703587064119      0.21403221028563      0.85201137438472
