4
Coordinates from ORCA-job orca E -1443.326078679789
  Np  0.85290006394639      0.59112728264344     -0.05827480338745
  In  -1.84275371922371     -0.85348067505123     -1.22377997058460
  P   -1.02588839591878      1.69813458249588     -1.09230567117855
  S   2.59828452030937     -0.61120992156829      0.89952959612988
