5
Coordinates from ORCA-job orca E -5902.689439864892
  Cm  0.03178413414746     -0.83453068955696      0.28932830508340
  Si  2.36727531900045      1.00075492191256     -0.21808291274095
  Br  1.05128230678865     -3.64781395008570      0.76531288972808
  H   -0.82764977428057     -1.04452018850296     -1.75539947563818
  Se  -1.92820198565599     -0.12093009376693      1.99090119356764
