64
Coordinates from ORCA-job orca E -3027.296994409713
  Tb  0.10628094138047      0.66973513425988     -0.37659921523241
  N   1.43306117004698     -1.29232470317757      0.55062002944029
  C   1.00570716708269     -1.98782618226547      1.61037070679470
  C   1.59756712429926     -3.16047162022551      2.03949026666981
  C   2.67714570629981     -3.64617522217437      1.32315466283133
  C   3.13054693399601     -2.93290937616569      0.22593413836304
  C   2.49833405442886     -1.75005163916019     -0.13208354493684
  C   2.97042927611070     -0.92347882898954     -1.27935827801670
  C   4.16982655091911     -1.18802986300965     -1.92570850000121
  C   4.56879410235483     -0.38854103595943     -2.98443762502524
  C   3.75802612408728      0.66243493244248     -3.37327428905127
  C   2.58121319085940      0.87277418856303     -2.67841811609277
  N   2.18922153489751      0.10691793758309     -1.65185228160150
  H   0.15207847780816     -1.58414998354499      2.13592026995057
  H   1.21458185250561     -3.67501442454392      2.90823154688545
  H   3.16429048069764     -4.56709878824849      1.61173065421949
  H   3.96539076171486     -3.30907586663639     -0.34320867303816
  H   4.80220320554134     -2.00122272865014     -1.60744181956091
  H   5.50140608594910     -0.58637427387315     -3.49408250184947
  H   4.02282848932188      1.31039207949839     -4.19550329311560
  H   1.91492995678995      1.67604796579648     -2.96295438920448
  N   2.10011700574783      1.77487194798681      0.80437287585074
  H   2.74470765175365      2.27525351848742      0.19932123752123
  H   2.66151554342899      1.08494301105238      1.29530000292787
  H   1.78905739086679      2.44022576944308      1.50543614006694
  O   -0.33854305215980     -1.27316638694978     -1.86462636993065
  H   -1.03579675884580     -1.90162863099231     -1.64370325827762
  H   -0.29132225884462     -1.20979424112338     -2.82346331772502
  C   0.20255392322657      4.12554979432209     -0.53795523291685
  C   -0.93106244635997      4.81970374943687     -1.28400657333293
  C   -2.20700793049510      4.40708891518930     -0.51360454349842
  C   -1.70235392894292      3.48274018150491      0.58996706286449
  O   -0.41728582325022      2.99447220334902      0.12757024208435
  H   0.64448765041009      4.76684705238601      0.22755443585597
  H   0.98530720265325      3.74330544474118     -1.19079008032443
  H   -0.97578199428075      4.48045165399328     -2.31640933683490
  H   -0.78508884094236      5.89665743813596     -1.29580702641153
  H   -2.90098044517581      3.88410811596200     -1.16756246898663
  H   -2.72748283611792      5.26342297846510     -0.09249467129229
  H   -2.33755225888167      2.61737777912105      0.76366413630862
  H   -1.53798036514555      4.01525616500258      1.52925678680815
  N   -1.53748406761500      1.68866370379698     -2.43208830115073
  O   -2.18993996332593      2.19682636315210     -3.28331771981115
  O   -0.24936017174736      1.62486419096593     -2.49304991308182
  O   -2.03003987681735      1.16624082527366     -1.38145001709681
  F   -0.41678555350506      1.50761018997999      4.69090404252233
  P   -1.31293689371908      1.06243290658409      3.49742660630372
  F   -1.27704127680053     -0.48750200819742      3.75363130001896
  F   -0.11989260885743      1.07492462440804      2.38886418688458
  C   -6.28280193493186     -1.01475750552231      2.63920609230825
  C   -5.74022555996871     -2.27127119416929      2.40038799621330
  C   -4.52132052055257     -2.38345491434250      1.75617094316801
  C   -3.83729288733823     -1.22941281694833      1.36703339678468
  C   -4.37876795186349      0.03119650727474      1.61953480593891
  C   -5.60709033750499      0.13448182519814      2.24604747016545
  C   -2.54574657013391     -1.31210976696630      0.68138283587362
  O   -1.66858774388114     -0.45509635678627      0.76061015649035
  O   -2.29056464120821     -2.37973703167901     -0.07367057727934
  H   -7.24071959576101     -0.93122319521828      3.13337758247601
  H   -6.26562368466027     -3.15965218297092      2.71962260924295
  H   -4.09380917325988     -3.36875997501308      1.60807015290602
  H   -3.85486222528690      0.91460496136508      1.28188923374371
  H   -6.04474899932352      1.10656153671851      2.42289517269185
  H   -3.06752837767337     -2.95247484793610     -0.13572784449802
