26
Coordinates from ORCA-job orca E -2388.076195407376
  Er  -0.42930427153011     -0.81324726236395     -0.21309371327505
  N   -2.25292449256691      1.01454557995409      0.71274610304618
  O   -3.02896753792730      1.81463262520453      1.12533192126891
  O   -1.54846122917014      1.20889925655404     -0.34282339549129
  O   -2.04715923122511     -0.11411172900464      1.28164845977336
  C   0.35691040867685      0.14312024306395     -4.99244727268670
  C   0.30162702081363      0.07588467701531     -3.54261912427800
  N   0.25040182446759      0.02500836859056     -2.40001626484680
  H   -0.35367148173033      0.88788345017721     -5.34433457002170
  H   0.09428252855281     -0.83488008468023     -5.39009274349738
  H   1.36045828315921      0.41965429802203     -5.30759896668520
  C   2.48085845032275      1.36248096078239      1.48245688221693
  C   2.66169816221644     -0.02095337734398      0.88388867183070
  O   1.42421409665638     -0.63194829893318      0.63512242390765
  H   3.44559043144430      1.83016783574252      1.68367096535062
  H   1.92409957176983      1.30043116358497      2.41766354182181
  H   1.92583892210480      2.00380916544342      0.79585401910952
  H   3.24735383201053     -0.64807288623339      1.56902100751664
  H   3.23534115004448      0.04304033616535     -0.04667949477910
  F   0.73433117406072     -1.19283497259234      3.31668218544645
  P   1.11773581726128     -2.45112392940404      2.45765114110190
  F   0.58406279991634     -3.53089175773960      3.47994863315433
  F   -0.25867629360081     -2.48586832239757      1.56061814336400
  N   -0.97604772255088     -2.49790153524762     -1.54282619176255
  N   -0.90471764767370     -2.68021565825297     -2.72274153787361
  N   -0.83167456550276     -2.83850814610678     -3.84653082371149
