15
Coordinates from ORCA-job orca E -5492.844401102923
  Lu  -0.20117413339494     -0.46890811706348      0.01309298859751
  S   1.40667276409353      4.00032671429628      1.97847060397006
  C   0.93370117008103      2.60978524994242      1.26128867471921
  N   0.59124934311544      1.60897303972617      0.76384229088739
  Br  -1.15892070565802     -3.01020153884580     -0.20929281293436
  N   1.84169595358247     -1.18676261036866      0.40761743605019
  N   2.79695423570741     -1.81678721479898      0.70397293034981
  N   3.73296054853179     -2.41356835557201      0.98925281778509
  S   0.15827152743412      0.76106669657836     -4.87812861268847
  C   0.05261536926000      0.36981187215602     -3.30149025934190
  N   -0.02099536872235      0.09170398069631     -2.16777523718511
  Cl  -2.59276079065866      0.51083157844729      0.45674341570627
  O   -0.53505649873158     -0.42925302498811      2.44918453601958
  H   -1.43555194423119     -0.08261034586494      2.30629207497299
  H   0.00235923168332      0.35574434086622      2.61471903623860
