30
Coordinates from ORCA-job orca E -3797.154291348088
  Nd  0.21083448223680      0.58112312183482      0.54785433851355
  C   4.83377513616271     -1.34449756204069     -0.29795712054844
  C   3.52019056934650     -0.74813657587353     -0.17143175308582
  N   2.47636090966299     -0.28013992550831     -0.06912017291992
  H   4.74983688763160     -2.29204833791646     -0.82825766756752
  H   5.24588853029200     -1.51689577617468      0.69541872941500
  H   5.48526790560133     -0.67184183294293     -0.85367739331857
  N   -2.25095710825419      1.33524534088275      0.33202962986080
  N   -3.36427385251182      1.59186082278167      0.67077244088745
  N   -4.43520032797981      1.84336768231957      0.97917281064670
  C   -0.76695185368638     -2.05928827767256     -1.48244541394298
  C   -1.09228488604879     -3.52143049313626     -1.25873854358023
  C   -1.97073079123219     -3.47566251882667     -0.00944354441833
  C   -1.26663213518525     -2.44865154629625      0.84863551398876
  O   -0.70571562964191     -1.47553587987170     -0.12702867460277
  H   -1.55687272845481     -1.54084106000520     -2.02434319051706
  H   0.19468607142846     -1.88451269439129     -1.96189188288709
  H   -0.18416822664553     -4.09392946101979     -1.07217874071965
  H   -1.59838473068397     -3.95286859012861     -2.11838303981411
  H   -2.03778821708760     -4.43569953568412      0.49579443047142
  H   -2.98018719734422     -3.14780864615207     -0.25656763522217
  H   -0.42738785818065     -2.86808199116614      1.40015651117406
  H   -1.91314905787601     -1.89701479700605      1.52667154175567
  C   1.23832729208013      5.55258169947918      0.14020563299633
  C   0.92238294179724      4.13943926557500      0.15705396896617
  N   0.67177870866851      3.01867034719273      0.17377834359560
  H   1.24187157215063      5.93119410090709      1.16146328163978
  H   0.48968628934590      6.08356342149937     -0.44590004748298
  H   2.22100090585310      5.69697589409884     -0.30641164458077
  Br  0.22038938813054      0.34999680569982      3.15984573117306
