46
Coordinates from ORCA-job orca E -2567.316055227331
  Lu  0.44342674918309      0.03813731859447     -0.35995951943485
  N   -0.14808517013080      2.28382148819257      0.32972846720869
  C   -1.10671206232321      2.95763735501717     -0.58708953908840
  C   -0.90619548811813      2.44671945078380     -2.00029063684913
  N   -1.00408288069259      0.95906323846764     -2.06000991802601
  C   -2.39499164964333      0.43632775351350     -1.93175441402342
  C   -2.69601674715422     -0.08717429799145     -0.53537928836157
  N   -1.69049194967694     -1.11453777333840     -0.15200892231146
  H   -0.46715736127770      2.34534381328470      1.29417486551137
  H   0.73118195520212      2.79788465147930      0.32328337720590
  H   -0.98295564351324      4.03948837507674     -0.57065728964386
  H   -2.11786236230491      2.75219289738230     -0.23954458745723
  H   0.08830402236250      2.71841323796077     -2.35741937798732
  H   -1.63526220383656      2.90540318046106     -2.67029514662293
  H   -0.66744397721338      0.69984223268692     -2.98231055134798
  H   -2.51572430941527     -0.37738289896416     -2.64850522828612
  H   -3.12075039570246      1.20445122116729     -2.20364874663639
  H   -3.70999290597974     -0.48594766504163     -0.50926718220542
  H   -2.64975707288328      0.70929599502021      0.20803356306313
  H   -1.85280361394281     -1.95315542993643     -0.70364087252612
  H   -1.83750578741613     -1.40229071018299      0.81528465696493
  N   2.28800083655208      1.09302402481238     -1.24788813533305
  O   3.14993133089749      1.66554729876987     -1.81651353793647
  O   2.55038214934300      0.49700338664718     -0.10318495197682
  C   2.54069506630663     -2.28218445364229     -1.70945394850894
  O   1.16046495318859     -1.86516878868752     -1.40185647270838
  H   2.69027508032658     -2.24098102555818     -2.78377270290622
  H   2.69206302403649     -3.28763592810733     -1.32994564313824
  H   3.19767227264271     -1.58612945852046     -1.20272994275240
  H   0.57256473850790     -2.54369205756748     -1.74728477699683
  C   -0.12682473667146      1.24748319445891      4.57718266683502
  O   -0.00545485375162      1.02144992624361      3.14302273867819
  P   0.36979137455307     -0.38019984637380      2.47846761032298
  O   -0.77816472394834     -1.43428859218623      2.79110499738405
  C   -0.98884994559969     -2.10741511720652      4.06900239483331
  O   1.57629605349051     -0.96728050212636      3.31944014884433
  C   2.86427358840244     -0.29556802178489      3.34602217877904
  H   0.22779230694794      2.25405362224610      4.76994630024959
  H   0.47596918852152      0.52975161678654      5.12839638192002
  H   -1.17294240100786      1.16084925467165      4.85659568064192
  H   -1.69679964118142     -2.90495694791043      3.87629937804644
  H   -1.40666826526869     -1.40647995902779      4.78604405246768
  H   -0.04922690024378     -2.51469976362317      4.42752496734277
  H   3.56028457424473     -0.99751278583868      3.78971709408255
  H   2.79952132413896      0.60044203856107      3.95895614794155
  H   3.18283246004922     -0.03994454866955      2.33668366474189
