56
Coordinates from ORCA-job orca E -5105.395414933743
  Tb  0.87513126011211      0.42593150908474      0.03216514809903
  N   -2.96718332248849     -0.81918137940013     -0.22105227835669
  C   -2.87402972730442     -1.60284505547469      1.01499765264503
  C   -1.44891360026057     -1.95031484767557      1.42042566345595
  N   -0.59451728453027     -0.80852625439940      1.80200405473454
  C   -1.17197025721026      0.07148112470758      2.82680579778102
  C   -1.75720234252580      1.31889502398312      2.18628325834340
  N   -0.68682266288340      1.99997856540500      1.43965381846122
  H   -3.94403631232842     -0.62814474059023     -0.41168018829964
  H   -2.64409305687846     -1.39060154799891     -0.99674314069560
  H   -3.40876355303693     -2.55660794925082      0.94077033329401
  H   -3.36502897189739     -1.04410320715349      1.81463685669444
  H   -0.95158892670525     -2.46227485387521      0.59615209608381
  H   -1.52721215346821     -2.64819515984845      2.26350164301395
  H   0.27091760132444     -1.19837978272133      2.16533950180655
  H   -0.36993370832791      0.36872826831806      3.50282973508747
  H   -1.93376182537801     -0.44262752892969      3.42106016919260
  H   -2.19747891291982      1.95788153901521      2.95735849587973
  H   -2.53765099456884      1.04765592301944      1.47587507159820
  H   0.02758547725126      2.32113413351271      2.08937521693826
  H   -1.04295633080021      2.81386182083976      0.95359820512769
  C   -0.96749823981031      0.45903906022491     -2.76184956992588
  C   -0.79404631228595     -0.99557624863044     -2.32547163325898
  O   -1.34586624243962     -1.89242791811461     -2.94315115993425
  O   -0.08104546424487     -1.14627266325927     -1.26378617857206
  N   -0.94985180145338      1.30308637723849     -1.55177518891354
  H   -1.88651765387554      0.55056926038936     -3.34018541434871
  H   -0.11747422964371      0.72419800016976     -3.39330613750810
  H   -1.75939267374768      1.04167153146506     -0.98678310147105
  H   -1.04205453302054      2.28234711323019     -1.79104059360652
  Br  2.28789543231457      1.01416630168733      2.52312809938381
  C   2.55804205110734     -4.18967048008192      1.05902259763285
  P   2.71477164653135     -2.72558540838346      0.02523527945503
  O   1.87408403606086     -1.61384018525175      0.60166334968626
  C   4.45443997751946     -2.30166751406592      0.00601679620346
  C   2.24096494297359     -3.21549446130562     -1.62832836594292
  H   3.18429177440138     -4.99993734340789      0.68744991487149
  H   1.51784442384471     -4.51391401983918      1.06250531016951
  H   2.85573970170990     -3.93899685415265      2.07640389151260
  H   5.05599562603883     -3.14079898706087     -0.34278884767198
  H   4.75619290078810     -2.02079960922789      1.01465931226535
  H   4.59325923666269     -1.44630754868036     -0.65460772921896
  H   2.82504764972079     -4.08011188477443     -1.94509468562639
  H   2.41604788598955     -2.37853751279050     -2.30353304234095
  H   1.17633049794713     -3.44538200015720     -1.64422026077764
  C   2.16360557895366      5.26106238940902      0.37019229501019
  C   1.87852883659891      3.92457084932131      0.61966848094494
  N   1.43712740106844      3.11574466832770     -0.34294000627417
  C   1.31231773303537      3.65832473424631     -1.55539811923727
  C   1.59036907145617      4.99444926094486     -1.78966544331024
  N   2.01247429842479      5.80954177123179     -0.82802186833400
  H   2.52576412329217      5.89807870904555      1.16706838395409
  H   2.03206947198961      3.48582783001305      1.59748936528918
  H   1.02137866821904      3.00220702072449     -2.36436228916384
  H   1.47659722501153      5.41167730163411     -2.78199115113164
  I   2.98107656368641      0.59901285931296     -2.24305940069470
