6
Coordinates from ORCA-job orca E -957.990854026942
  No  -0.03472258546057      0.59659662341561      0.26363133909802
  Li  1.80591223236782      0.13033154067712      2.61908990070845
  H   -0.47735520717982      0.26824014200786     -1.85776362570897
  H   -1.04430191046520     -0.80713148368610     -1.08252557601502
  H   1.49684201987283     -0.70389757659414      1.19409068417299
  H   -1.74636454913506      0.51586075417966     -1.13651272225547
