51
Coordinates from ORCA-job orca E -2555.282304360237
  Lu  -0.68225750788720     -0.71779353097931      0.30167924363344
  C   0.80109346694061      3.97044540172752      2.21631025763562
  C   0.59285469297897      2.86520154379142      3.02471566003054
  C   0.17181701870651      1.68312963981293      2.44118921641009
  N   -0.03948052356090      1.56037469506749      1.12472113351062
  C   0.16724049576269      2.63179764113819      0.34988978581910
  C   0.58275472290533      3.85127026189284      0.85212868782631
  H   1.12849692837227      4.90949482616396      2.64083364194863
  H   0.75077187610991      2.91047264035322      4.09229400158959
  H   -0.00914762230626      0.79247503452808      3.02828718190918
  H   -0.00111336725751      2.48515294914736     -0.70897685538594
  H   0.73299058771864      4.68697201757523      0.18438725665241
  C   -1.61175221153201     -0.70923699470274     -3.70892052340353
  P   0.00038292164867     -0.26841613372807     -3.07274308574342
  O   -0.07406934298297      0.29792869242174     -1.66252265734477
  C   0.69900007642361      0.95429541617856     -4.18408685055986
  C   1.03463661830541     -1.72480813226115     -3.16700171712766
  H   -1.53433719763451     -1.09796419317791     -4.72371820111789
  H   -2.25441486697301      0.17078265362570     -3.71273616628414
  H   -2.02055381978745     -1.47094916379575     -3.04549047212646
  H   0.75842461268901      0.56257760559628     -5.19885004965326
  H   1.69973623150912      1.22215052325450     -3.84728689822760
  H   0.07528048113726      1.84720287017923     -4.18315600074863
  H   1.07998429034828     -2.09859389921746     -4.18944136148191
  H   0.59668772555736     -2.47652121036095     -2.51088622992112
  H   2.04196108551287     -1.48091355185003     -2.83004711061251
  O   -1.22025029532816     -2.28985446307088     -0.92231718778917
  H   -1.55341023267227     -3.17526400194202     -0.79099271689395
  C   -0.74770836141869     -1.32855164541521      4.59561270643077
  C   -1.26814548899477     -2.05241584272098      3.36475852187713
  O   -1.01964395850092     -1.33782403891531      2.19192534164021
  H   -0.93033492457184     -1.91173757875094      5.49857967068246
  H   -1.24380295168304     -0.36336972445391      4.71269865213380
  H   0.32811380949072     -1.15873818719317      4.51340244506160
  H   -2.34416804885086     -2.22959628295121      3.47794978973855
  H   -0.80045000868458     -3.04478891825703      3.30893169312763
  N   -2.90121066757831      0.30493050064955      0.20372024322729
  H   -3.25019463734479      0.32576953551008      1.15667635919199
  H   -3.52427064382125     -0.29590233442356     -0.32563006508391
  H   -2.99324172414444      1.24205785709032     -0.17058592212929
  C   4.36038800800330     -1.67767282145027      1.07803992381176
  C   3.99739945540912     -0.62229547841186      0.25447520327088
  C   2.65344438776929     -0.38253608743304      0.03975497085950
  N   1.68954716609005     -1.12357266693882      0.59608584947548
  C   2.04495845692481     -2.13439220401749      1.39662042701567
  C   3.36638100604565     -2.44757739892684      1.65945852311438
  H   5.40297915313119     -1.89382082077666      1.26604045180448
  H   4.74055905921982      0.00710243267965     -0.21266822716359
  H   2.31854424867848      0.42882094198134     -0.59468611607347
  H   1.23260684765161     -2.69513189872901      1.84110840262410
  H   3.60392297247506     -3.27616647551363      2.30996917281873
