57
Coordinates from ORCA-job orca E -1951.363611565045
  La  0.22230255005373      0.15066984731926     -0.09304003911176
  C   3.70392129312513     -2.29563022944627      1.99250556634064
  C   2.62075919335580     -2.07049718313223      0.97882798392394
  C   2.33437155864937     -3.06823167103235      0.03773973356074
  C   1.35101066697887     -2.97421090274849     -0.94773956135167
  O   0.59308706402884     -1.95987541614397     -1.12124200931155
  C   1.13556327530710     -4.11833985818999     -1.89394670439949
  O   2.01730146631124     -0.95342244101076      1.04758445739642
  H   4.17320874708709     -3.27017700547667      1.89711249171135
  H   3.27990726883780     -2.19101960607320      2.99221686816708
  H   4.45757685652114     -1.51620045530885      1.87812749857096
  H   2.91577943853041     -3.97554395821937      0.07832635595902
  H   1.78694803277269     -4.96194006003807     -1.68670804828244
  H   1.31004611022043     -3.77141644751227     -2.91328703199834
  H   0.09484748036846     -4.43725627164315     -1.83472019407142
  C   -3.40098028141431      0.17197747247881      0.25748336907416
  C   -4.55954601607603      1.12535282910136      0.00315042366593
  C   -3.97200276927339      2.10354065927552     -1.01431284818633
  C   -2.55833781311353      2.26693924987540     -0.49920135834771
  O   -2.19605711833032      0.94089296359495     -0.02035770149437
  H   -3.41614644472718     -0.67780275596743     -0.42676788780495
  H   -3.34295232079386     -0.19097579535819      1.28115660655976
  H   -4.83005416077416      1.65094245897682      0.91865392750223
  H   -5.44070430911681      0.60348449220590     -0.36140775559670
  H   -4.50700616295061      3.04896822492027     -1.05724942796758
  H   -3.96471976198731      1.66402333320051     -2.01317196920299
  H   -2.50872312895026      2.96180379061213      0.34027812631304
  H   -1.82464549455386      2.56180049912942     -1.24727679256919
  C   1.06080745615514     -1.43315063274286      6.86407303389789
  C   1.22742097200787     -0.08875516200809      6.55798501342213
  C   0.87270765296865      0.38074866183818      5.30597113201838
  C   0.34661798044164     -0.50048887781716      4.36176441284037
  C   0.16754214500728     -1.84678588929199      4.67561648681055
  C   0.53112492582042     -2.31096177404062      5.92651309354485
  C   -0.02994841410104     -0.06041200962793      3.01435279634088
  O   -0.73563664601838     -0.68415038177676      2.24093656675152
  O   0.43854756238739      1.11659067172755      2.54770958665598
  H   1.34137706977772     -1.79761080252735      7.84253229237081
  H   1.62621386033827      0.59185066339843      7.29620742868181
  H   0.97615794614282      1.43823982727831      5.09470692962753
  H   -0.24688352572110     -2.51174860176101      3.93110739714405
  H   0.40144704026035     -3.35480882626347      6.17387875143845
  H   1.17548412001099      1.46866242359857      3.06165971275184
  Cl  1.39778692644074      2.47759353437103     -0.66212300814415
  C   -0.72592548896421      2.02862592348112     -3.93994694535401
  P   -0.20703951099265      0.44931396206547     -3.19082702837994
  C   1.48221764521997      0.24395735834479     -3.84958234099521
  C   -1.15182061626605     -0.79027827708139     -4.13917556733678
  H   -0.55837844599426      2.02783822843207     -5.01715915440726
  H   -0.15594986398186      2.84031350532354     -3.48848768569999
  H   -1.78604480686472      2.20205058602550     -3.75341035392615
  H   1.49149787265193      0.31088574952857     -4.93783684978101
  H   1.87478017487694     -0.72801283491637     -3.55058117628250
  H   2.12612544443132      1.02014728908101     -3.43700079252612
  H   -0.98058466150176     -0.68529037827971     -5.21071574918612
  H   -2.21794869744856     -0.68029517407236     -3.94149038428088
  H   -0.84815133717124     -1.78752452567601     -3.82251167704576
