28
Coordinates from ORCA-job orca E -1193.418448024569
  Ce  -0.32077292763825      0.19880262304818      0.40757996276769
  N   1.38637402266623     -1.58656705011854      1.03347145878208
  C   2.56597720716618     -1.58318760133715      0.12287640562379
  C   2.08755780222616     -1.54010267231273     -1.31115166610267
  N   1.29346376158491     -0.29186742141303     -1.53371050751919
  H   1.69828842621607     -1.45814682699499      1.99402572847993
  H   0.96212629811229     -2.51308850513271      1.01847645353237
  H   3.19265508798667     -2.45907963794297      0.28479954662228
  H   3.16738714664379     -0.70274412788943      0.35288505714298
  H   1.43996094820213     -2.39147215656146     -1.52453521548684
  H   2.93223813560909     -1.59142550105599     -1.99628433103155
  H   0.85606373833418     -0.34249689754057     -2.45227327854991
  H   1.94289063910985      0.49081345784504     -1.60580373307731
  C   -3.98891376374570      2.95212917447083     -1.79369742557817
  C   -2.88813863871752      2.18843169272535     -1.24773764578181
  N   -2.01437192334453      1.57986333516688     -0.81384953420620
  H   -3.59875345528420      3.82699330625917     -2.31249924009661
  H   -4.64212483229973      3.26916822329845     -0.98119633793042
  H   -4.54826237148598      2.32903548862375     -2.49070405548434
  C   1.26545696171314      2.54294095322549      2.21748829267294
  O   0.71625020054918      1.56294640512949      1.30186371236616
  H   0.87260740490289      2.33910032190080      3.20964489338733
  H   0.96469731406851      3.52963453273295      1.87893628008965
  H   2.34713012065311      2.44863567461193      2.20387052221998
  N   -1.90594098075107     -1.27122808007877      2.14338268583552
  O   -2.59832011000479     -1.89230594773523      2.84418735828655
  O   -1.80877356454210     -1.47615495542951      0.85169041579857
  O   -1.14005264793049     -0.30252780749530      2.52586419723717
