4
Coordinates from ORCA-job orca E -3308.430776083728
  Am  0.14593641835623      0.11497524573973     -0.03476133626627
  Be  -0.93601089355699     -1.75016489010340     -2.06675437359718
  I   -1.31340184390042      2.87628845923415      0.43670447200649
  Se  2.69996631910117     -0.41920881487048      0.22821123785696
