5
Coordinates from ORCA-job orca E -479.009978582564
  U   0.13189070835498     -0.94583170293701      0.24320796306793
  H   1.62306987137435      0.36144412806801      0.06370512104966
  H   0.83453238532352     -2.74780355236007      0.73254552698763
  H   -0.70075433326364     -0.99257615733841     -1.56487856763446
  H   -1.19424863178921     -0.32227271543252      1.59747995652924
