4
Coordinates from ORCA-job orca E -3096.476551311073
  La  0.73025372557528      0.93928451273338      1.35253842835124
  Sr  -0.85764401510550     -0.84930111320661     -1.72322540757027
  Cl  -1.20725366617161      1.71276525305758     -0.51039740060086
  Br  1.93113395570183     -0.98085865258435     -0.55551562018011
