33
Coordinates from ORCA-job orca E -2081.479749567184
  Tb  -0.77990202961588      1.02165707489002      0.97248596495595
  C   2.82217676610702     -1.63949155574392      0.64010380827255
  C   1.87160088030951     -0.72584032173865      1.33863850187151
  C   2.10469694440942     -0.32162120709256      2.65246332399484
  C   1.27011869485727      0.52858896420799      3.38127568480417
  O   0.20313841973007      1.05754259854856      2.89521732415023
  C   1.58212811692597      0.87043789384968      4.79931365579021
  O   0.84766529515885     -0.35256271850936      0.65190490181496
  H   3.64687751130209     -1.94531582963294      1.27567035276224
  H   3.21069141881875     -1.12975016330798     -0.24240714057700
  H   2.27967976249013     -2.51779205131271      0.29005970085673
  H   2.98511519146655     -0.70170532232536      3.14489133568838
  H   2.49156257399263      0.39303258442875      5.14951265718727
  H   0.74333111221270      0.56800024284649      5.42706533929492
  H   1.67520390170993      1.95294546144859      4.88963801281484
  S   -0.51365938188781      5.17863792106911     -1.65716378876260
  C   -0.62524520214781      3.85270673680730     -0.82305020493598
  N   -0.71722295826742      2.83991997382868     -0.19074661395485
  C   -7.30350640982073     -0.77515669489356     -1.47371391381325
  C   -6.30160227042098     -0.84664374558061     -2.43504943978966
  C   -4.98885896854310     -0.61466142685934     -2.07516963663020
  C   -4.67875446129878     -0.30755119894054     -0.74711801155072
  C   -5.68745340666280     -0.24544865738284      0.21682039364331
  C   -6.99883604526085     -0.47814493695562     -0.15148463733919
  C   -3.31478904554904     -0.03579417599486     -0.31797936107881
  O   -2.96293828078832      0.12353318191743      0.85456988887948
  O   -2.32021441621298      0.07287972471473     -1.20593877910814
  H   -8.33037831158518     -0.95561779047774     -1.75992245761645
  H   -6.54637820740056     -1.08631200042676     -3.45947511086486
  H   -4.22532622370188     -0.70102609532945     -2.83945433985316
  H   -5.43136922470678     -0.01024323584519      1.23967866680324
  H   -7.78432056318350     -0.42736169582850      0.58840825409539
  H   -2.61151023791299      0.08536365996607     -2.12574650729002
