40
Coordinates from ORCA-job orca E -1659.369321952357
  La  0.30731011210058      0.19866550239566      0.42815243344062
  O   0.58457146898247      2.18770838733140      1.46643247071611
  H   1.24831136158706      2.63758846249838      1.98567955343043
  C   7.25873491551326     -1.67101160937650      0.36375088582955
  C   6.64894695886883     -1.17958954171695     -0.78298764948182
  C   5.31495984210583     -0.80181941595142     -0.75102392207524
  C   4.58884286228781     -0.91335523728787      0.42802073340128
  C   5.19961602341205     -1.40560043574102      1.57451266103582
  C   6.53312123440148     -1.78443432069656      1.54244330561347
  C   3.14153936321611     -0.50469493936344      0.46528553374980
  O   2.51471919549732     -0.59563882281397      1.55040942471585
  O   2.60933147643953     -0.08373711572763     -0.60292455374996
  H   8.29962160064150     -1.96792591566043      0.33842825127630
  H   7.21400239443215     -1.09335735281187     -1.70210470870294
  H   4.81393275640700     -0.41930337740842     -1.62930301910693
  H   4.60908837123356     -1.48542854544271      2.47660035299680
  H   7.00772380803102     -2.17063371898511      2.43531740477476
  N   -0.41696594702159     -2.48709477386633      1.68639372354354
  O   -0.69628110135250     -1.36133060913805      2.22237525495762
  O   0.10144991103898     -2.44800913107127      0.53924115157544
  O   -0.64989678006088     -3.52524649247528      2.25831154354696
  N   -0.77935143740670      0.35510725480960     -1.76861437091602
  N   -1.48130576506468      0.64727209569136     -2.67959499731225
  N   -2.17025310267025      0.92911849516396     -3.55011326811754
  C   -4.67707430839678      0.83601501354356     -0.99683309482368
  O   -4.39210984081366      1.90167703399055     -0.08380112512061
  P   -2.81989943648463      2.31715602754304      0.01399876916398
  O   -3.09811184325530      3.48424687300556      1.11081133239671
  C   -1.97254762003710      4.32256663589065      1.41615110098116
  O   -2.24334052374164      1.09826000689015      0.98236975952584
  C   -2.79601451048804      0.91891256078329      2.30107827347473
  H   -5.74887967331421      0.85228864047099     -1.17819671690818
  H   -4.39895853840074     -0.12469612787427     -0.56027203640888
  H   -4.14505350157276      0.96508326033342     -1.94169590200596
  H   -2.19402687672439      4.80558911764417      2.36540748647588
  H   -1.85489817192035      5.08585736555215      0.64505706826293
  H   -1.05058830936639      3.74233136074933      1.50195738294530
  H   -2.61219364822439     -0.11109163849411      2.58847850340073
  H   -3.86324697811856      1.13149313546245      2.29048929399151
  H   -2.29212574176122      1.59066189215350      2.99431170950679
