5
Coordinates from ORCA-job orca E -1685.759096855833
  Es  0.06750810228868     -1.20965437601496      1.97149165423759
  Al  2.82417038237933     -0.91420566396597     -0.38963947040713
  C   0.97949088474930     -1.16524178933198     -0.04974711069393
  Na  -0.99947372945186     -0.75403299931237     -1.42654489818113
  Cl  -2.17720563996546     -0.60390517137471      0.96649982504459
