5
Coordinates from ORCA-job orca E -2247.303587741399
  Th  0.13882479019027     -0.92815410114881      0.21425242844807
  Cl  2.07247127085610      0.72448417169580      0.09984744579963
  Cl  1.02509011891296     -3.22611878343190      0.85868344055182
  Cl  -0.99769517517217     -1.06701849082356     -2.05990264233158
  Cl  -1.54420100478716     -0.15023279629152      1.95917932753206
