17
Coordinates from ORCA-job orca E -1560.749649194213
  Tb  -0.14804283318107     -1.00428476768314      0.42284663952838
  N   1.80787676493157     -0.57847849953228     -0.65461368886667
  N   2.77243807770803     -0.23507493172815     -1.25669503596351
  N   3.70304927021289      0.09123049880445     -1.83299828814110
  C   -2.32741979253956      1.37473458651747     -0.95313432159601
  O   -0.99611080923120      1.32348802277866     -0.46511118232586
  H   -2.67213687225091      2.40993925284910     -1.03328080464316
  H   -3.00968293260902      0.80871048175422     -0.31677740678767
  H   -2.33763023416569      0.91630029068150     -1.93861067133317
  H   -0.99639555282046      1.48576329830175      0.50139304539446
  F   -1.81463820711529     -1.53717846987733     -0.66329444494176
  N   0.23394384798252     -3.46874700632703      1.88947861244221
  O   0.34890614417174     -4.50091566672237      2.50452941043576
  O   0.63476231749153     -3.34108444864326      0.69707016284436
  O   -0.29794516081231     -2.43340481718714      2.40560983929076
  O   -0.57206826014260      0.51699528873565      1.90076669801678
  H   -0.58960576763008      0.48130688727795      2.85432143664618
