4
Coordinates from ORCA-job orca E -8487.814740031537
  Gd  -0.02071581503247     -0.03786042861629      0.06321993230893
  Br  -0.99608856147889     -1.42594449272750     -1.95585661996470
  Br  -0.99624020146411      2.40621703965340      0.22240857614756
  Br  2.60953457797547     -0.12052211830961      0.23362811150822
