6
Coordinates from ORCA-job orca E -1017.704437635462
  Er  0.98450832837879     -0.14958459313750      0.27857627825965
  H   -0.78878386378976      1.42161553594840      0.28952515833034
  H   -1.01020014606599     -0.71488454385240     -0.49164203707815
  H   -0.75303893239015     -0.23425948476938     -1.08977796324522
  H   2.59247654564964     -1.27009997665509      0.15394920679766
  H   -1.02495193178252      0.94721306246598      0.85937935693573
