30
Coordinates from ORCA-job orca E -2080.313274065933
  Lu  0.03856865350924      0.28734242396012      0.69939086159908
  C   3.20998428031568     -5.31914642855609     -1.48323626593393
  C   2.35957585527880     -4.62128183415496     -2.33187014378400
  C   1.71057420718444     -3.48790926463382     -1.87636860829931
  C   1.91788033617918     -3.05885004350219     -0.56641256400338
  C   2.77248434196217     -3.75777355829343      0.28452383417025
  C   3.41778734994345     -4.89013927794313     -0.17793479327712
  C   1.23394015955657     -1.85768183125077     -0.08334393864420
  O   1.39881384463134     -1.42554084488145      1.11208516769208
  O   0.44233843400134     -1.19480295897894     -0.84631121993698
  H   3.71736057685369     -6.20389917907623     -1.84283364118411
  H   2.20764406122216     -4.96117529774144     -3.34634530833340
  H   1.04901372211901     -2.92772278218784     -2.52134715355349
  H   2.92458381326059     -3.40495905968310      1.29433593308623
  H   4.08405070151921     -5.43807947577441      0.47297092171366
  O   0.28067001283167      0.24823271449616      2.97798417795287
  H   0.24066877317803      0.94122839551787      3.64463576084052
  H   0.87918132152996     -0.44057451869177      3.29406003951993
  C   -5.03558649163397      0.52000212708185      0.37810449357437
  C   -4.25533274949827      1.66598790823122      0.38304541824934
  C   -2.88645024565175      1.53569234270524      0.49774677255018
  N   -2.28594817096754      0.33748921357680      0.60736822693663
  C   -3.04766370167064     -0.76853546253383      0.59475000365021
  C   -4.42097572547131     -0.71936834179560      0.48454614739400
  H   -6.11051121346771      0.59061465982925      0.28773790527885
  H   -4.69489128785620      2.64801700976842      0.29479518108465
  H   -2.23670868408188      2.40265579051291      0.49338681709795
  H   -2.53074532903314     -1.71761463724720      0.66743000228932
  H   -4.99321800684221     -1.63472592003340      0.47796012425976
  F   0.48531116109811      2.14891813128005      0.35124584800998
