7
Coordinates from ORCA-job orca E -3595.590537248180
  Fm  0.00000173600018     -0.00000147681680     -0.00000191040478
  Cl  0.00000276255288     -0.00000459229339      2.46572389138258
  Cl  -0.00000213566813      0.00000097128390     -2.46573357799471
  Cl  0.00000057601633     -2.46573036058501     -0.00000235667127
  Cl  0.00000061952513      2.46572781219387      0.00000422289533
  Cl  -2.46572596825185     -0.00000119862546      0.00000348773136
  Cl  2.46573240982546     -0.00000115515710     -0.00000375693851
