4
Coordinates from ORCA-job orca E -940.706208584287
  Fm  0.60589394952029     -0.29982855897530      0.68849058078038
  Be  -1.19249784316818     -0.29704606995382     -1.49808718566723
  Be  -1.08315323319104      1.53514406646262     -0.64421283179821
  O   2.26624712683893     -0.11637943753350      0.01720943668507
