5
Coordinates from ORCA-job orca E -2291.589118748344
  Lr  0.09551400789387     -0.95818107077523      0.21653364968575
  Si  2.32735242201465      0.81237970990072      0.11558323159694
  O   0.74200129603843     -2.87459483014206      0.73613355896385
  Cl  -0.95962583912525     -1.27670581936134     -2.01866885390428
  Cl  -1.51075188682169     -0.34993798962209      2.02247841365773
