20
Coordinates from ORCA-job orca E -4377.252398594320
  Lu  -0.07871483057389     -0.15751017314776     -0.83447751718855
  N   2.25635283934155     -1.50008288725837     -1.06554044863391
  O   2.19086972710309     -0.30431928883662     -0.60262960757284
  O   3.27651556326417     -2.10446694890499     -1.14691146793220
  O   1.12853459223630     -1.98432874489062     -1.42969410846878
  C   -1.10063940501260     -1.13374486371425      3.06003001615673
  C   -1.90951680856142     -1.19218819264168      1.77668428304696
  O   -1.15928383134527     -0.74367935095248      0.68657324025961
  H   -1.69086270873858     -1.48322498295266      3.90814231998213
  H   -0.78130879056912     -0.11036639129825      3.26044544982122
  H   -0.21190078022509     -1.75947945090986      2.97663583625300
  H   -2.81102604399514     -0.57896068452081      1.87653515645180
  H   -2.23997171828497     -2.21944908120068      1.59398975742747
  C   0.96209835551398      4.48199776111299      0.58840798227884
  C   0.67333093352214      3.10337063881920      0.23761278241058
  N   0.44677618508211      2.01923402850525     -0.04208256756872
  H   0.52867072557900      5.14111835040475     -0.16066571228012
  H   2.03954305477217      4.62774827864342      0.62206540487555
  H   0.53322872752118      4.70623585333706      1.56251879348974
  Br  -1.28341428523340      0.73352687300303     -2.96516164041978
