41
Coordinates from ORCA-job orca E -1966.152750211201
  Tm  0.04814826438673     -0.16235115040023     -0.35667064238013
  C   3.91895289347115     -2.12726492042887      0.96636558451152
  C   2.52294983154373     -2.07199364050767      0.42679591916087
  C   1.89651243534739     -3.24487581044396     -0.00628363051560
  C   0.60537312675484     -3.30758082659108     -0.53580726355906
  O   -0.15487661270800     -2.28819177356723     -0.68457003175824
  C   0.03472419944619     -4.62066600666995     -0.97015091915596
  O   1.97846695649522     -0.91535570691518      0.39706298836477
  H   4.31709238143251     -3.13672545961969      0.99428153955932
  H   3.93086528329305     -1.70239787532227      1.97032914836373
  H   4.55979126768934     -1.50144353336573      0.34444792382062
  H   2.45199424954265     -4.16604482604329      0.06863093828919
  H   0.71532825511751     -5.44821517303919     -0.79620825492175
  H   -0.20755241187597     -4.56440377282150     -2.03167762489099
  H   -0.90037414323005     -4.79611973966495     -0.43806564275508
  C   0.53572927843022      1.70873019645776     -4.41440470294655
  C   -0.18033444364108      1.40840307688966     -3.13589148669585
  C   -1.49700164066951      1.83539778207448     -2.94786398310144
  C   -2.25442710829188      1.58940494867033     -1.79896794862263
  O   -1.82994611201805      0.94969748522994     -0.77552504833585
  C   -3.66631097891245      2.08562477096083     -1.72168550047106
  O   0.48224099893337      0.74963119410285     -2.26204075224001
  H   -0.07036883029513      2.28523575351987     -5.10622824411678
  H   0.82692962204975      0.76739565279847     -4.88135989852903
  H   1.45420225255487      2.25078032376589     -4.18928190321285
  H   -1.96540414864533      2.38453997718291     -3.74893514264145
  H   -3.96429933530995      2.63943925679915     -2.60644773590031
  H   -3.77516661007005      2.71982923570721     -0.84158667783099
  H   -4.33130527047070      1.23165261021411     -1.58860293467734
  N   0.71960800121335      1.70300165400682      1.10766935350479
  C   -0.25110463210576      1.89800155383295      2.20754726040120
  C   -0.61561639315967      0.55417770350034      2.80939735028716
  N   -1.20779778950257     -0.31346487921581      1.76730015435387
  H   1.62846390171615      1.44510774421293      1.48351864638599
  H   0.85667107197770      2.57599675912766      0.60902114377424
  H   -1.14059109200780      2.36623253565515      1.78397400935142
  H   0.13593008962511      2.55874031315675      2.98389459908660
  H   -1.28860181903598      0.69856730899941      3.65527271203897
  H   0.28256936014821      0.06016363084520      3.18371004031428
  H   -2.13471004419815      0.02529310986209      1.52204078958248
  H   -1.32935430502097     -1.25504948295609      2.12399586810799
