4
Coordinates from ORCA-job orca E -718.582564391314
  Pu  0.47404564680521      0.67601394764102      0.09103600111800
  Be  -0.83798835443681     -1.22337930021127     -1.72790622869441
  O   -0.93089502443669      1.68379607319115      0.10169668783146
  O   1.89132773206828     -0.31454072062090      0.09857353974495
