7
Coordinates from ORCA-job orca E -4000.949868050324
  Bk  1.04382186165157      0.21757757738061      0.39946307583028
  N   -0.74357192098216     -0.75605574236760      1.01556663402007
  P   0.25009010542435     -0.93026060897956     -1.98067793924856
  Sb  -0.88425057054818     -2.31218754387556     -0.30770123624325
  Br  -0.58210971580137      2.29747451894406     -0.24843294385137
  Li  -2.04320548060229      0.76460790658022      0.99950541191155
  F   2.95923572085807      0.71883389231783      0.12226699758128
