39
Coordinates from ORCA-job orca E -1724.704886782660
  Tb  -0.20437505519813     -0.39393908778706     -0.01251258768954
  N   0.26487735936898      1.98246007299187     -0.66635605031086
  C   1.05115804589742      2.43230279656618      0.51370467347607
  C   2.38159322061420      1.70030669188880      0.56198572118084
  N   2.21157317772835      0.22011442529940      0.50523627593209
  C   2.67446045060772     -0.49868798010813      1.72230404107431
  C   1.60191894072259     -0.52674918650663      2.79157578253835
  N   0.40481860274137     -1.25686298176023      2.28071354970744
  H   0.80514637759946      2.13570337976438     -1.51510587304406
  H   -0.55679322195035      2.57264832825355     -0.77159116278513
  H   0.46040762011047      2.21943608374323      1.41215675974407
  H   1.22236418286200      3.50858163330174      0.50226348479798
  H   2.91774025595864      1.98679093896975      1.46689555994048
  H   2.99889721512421      2.01662651381287     -0.27972863125171
  H   2.77634829406660     -0.12340543723323     -0.26431817338802
  H   3.58557029502087     -0.04842945265604      2.11951971552751
  H   2.92440706986614     -1.52005036706105      1.42907638145511
  H   1.29289682192388      0.48489754080184      3.06021677051980
  H   1.99320742907475     -0.99278944871017      3.69532802504536
  H   -0.33360364067949     -1.20877298011047      2.97904275994154
  H   0.63371913371257     -2.24822594360911      2.22466311458562
  C   -3.90062880720351     -0.46369559235703      1.94601434310618
  P   -3.17621711238995     -0.04160715146420      0.33063070646088
  C   -4.01878916668375     -1.15679189122329     -0.83374357130178
  C   -3.87685155064239      1.59598000349878     -0.04526768587185
  H   -4.98731564432844     -0.39153294297247      1.89697089760293
  H   -3.54400785912267      0.21820825325911      2.71725001464667
  H   -3.63786080555938     -1.48325046157018      2.22666045990576
  H   -5.09999686046882     -1.05439020471463     -0.73899887381696
  H   -3.74505233395867     -2.19164959912607     -0.63105414699992
  H   -3.73291894607427     -0.92108066877862     -1.85822143363726
  H   -4.96478987601247      1.55904478980001      0.01498847508237
  H   -3.60183546748360      1.90558405688926     -1.05337506255677
  H   -3.51814237350775      2.34020992411626      0.66517046684346
  C   0.09405685229407     -2.77554223776345     -2.38328794156197
  O   -0.02073435728470     -1.77818400525566     -1.37127188504672
  H   -0.48020113456160     -2.47840954913138     -3.25809608328442
  H   -0.28551642897596     -3.72360820674991     -2.00848645574465
  H   1.13826929679169     -2.89384005630800     -2.66485236082329
