14
Coordinates from ORCA-job orca E -2145.462958581471
  Er  -0.91001890788383      0.76958481009220      1.04135290833287
  C   2.06597455444974      1.06259147904045     -0.47510322949317
  O   1.29602237903555      0.24999288530243      0.42002788413335
  H   2.92248003418287      0.49894915618972     -0.84361803729760
  H   2.38806295629530      1.97655850261346      0.02264865412093
  H   1.40304525631058      1.30952398610712     -1.29965814926034
  H   1.79663602284185     -0.01234289833686      1.20200255494481
  C   -0.02663688786009     -0.68122976123677      2.80924130972945
  N   0.75649414045562     -1.27701374605917      3.42187353858550
  O   -2.98266716162855      1.29349226948703      0.24889032904119
  S   -2.51113254739786      0.41813323252930     -0.94754997728216
  O   -1.12773060825700      1.06947888738899     -1.23176491703605
  O   -2.06500053654032     -0.84723746343974     -0.18441328727969
  I   0.06707130599611      3.33571866032180      2.14367041876086
