4
Coordinates from ORCA-job orca E -1373.850619320477
  Cf  0.12985203184182     -0.06320050043576     -0.44093038578589
  O   -0.93149058846645     -1.20076940651994     -1.51353980188254
  I   -1.53567699145356      2.60215232396279      0.22631586103422
  Te  2.93380554807819     -0.51629241700710      0.29155432663421
