4
Coordinates from ORCA-job orca E -8668.792617815010
  No  0.27620025449274      0.38183797079629     -0.20388355982957
  Br  -0.97242838821378     -1.38674254255755     -1.70508278279885
  Br  -1.42697248733815      2.36283059082772      0.22777134378937
  Br  2.71969062105920     -0.53603601906647      0.24459499883905
