5
Coordinates from ORCA-job orca E -1182.270007530008
  Es  0.13583542456315     -0.92270957229584      0.22073501146760
  F   1.70763571082538      0.24156390710579      0.00055726987150
  F   0.88632440665977     -2.62969816367871      0.85046229773664
  F   -0.76999394761285     -0.87150641074946     -1.52892044991265
  F   -1.26531159443544     -0.46468976038178      1.52922587083690
