6
Coordinates from ORCA-job orca E -1505.668460900125
  Lr  -0.12988151342078     -0.22438256061045     -0.00215449258144
  F   0.73678397504352      0.28161142529448      1.91459892456001
  F   -0.11544432072962      0.83871265251120     -1.88707819433768
  F   -1.08004725871154     -1.96946256186723     -0.04316560868059
  F   1.96315578516408     -0.40493684231556      0.51641290350039
  F   -1.37455666734566      1.47845788698755     -0.49860353246069
