4
Coordinates from ORCA-job orca E -1111.192735551880
  U   -0.09153355177274      0.03641982382607      0.47989442264559
  Cl  -0.78978544263822     -1.14359318380813     -1.88803178467596
  O   -0.49460350422729      1.80632678976782     -0.01222224869354
  F   1.97241249863825      0.12273657021423     -0.01624038927609
