5
Coordinates from ORCA-job orca E -838.593450186185
  Fm  0.04600926869671     -1.04878898433381      0.43683094185143
  H   1.52806038276094      0.17074915616096      0.30468242753834
  H   1.09504670848272     -2.74458256254836      0.21075649543714
  H   -0.75926731938865     -1.20722376292655     -1.30651844249198
  H   -1.21535904055172      0.18280615364776      1.42630857766507
