5
Coordinates from ORCA-job orca E -1346.948867881035
  No  0.13818446442409     -0.93138650223029      0.21194269167813
  F   1.87296393365868     -0.22800379453964     -0.46751222745134
  F   1.05769118395823     -2.24962581634921      1.38878636421996
  F   -0.85303972230023     -0.24648870783390     -1.37431209718589
  F   -1.52130985974078     -0.99153517904695      1.31315526873913
