5
Coordinates from ORCA-job orca E -952.602493039666
  Pu  0.13392529735632     -0.92949336204538      0.21844349705278
  F   1.67488786709473      0.37163079308815      0.11065104735953
  F   0.84952889683660     -2.74646190836695      0.73287172192725
  F   -0.75836612976131     -1.02538339354884     -1.59093215308148
  F   -1.20548593152633     -0.31733212912698      1.60102588674192
