5
Coordinates from ORCA-job orca E -2056.837768883750
  Np  -1.09185684223091     -1.44014791609675      0.25785548604587
  Ca  2.01305999439633     -0.15507636365314     -0.80453160633278
  Li  2.03412971065181     -2.98329737272155      1.13128211779460
  S   -0.42133736649107     -0.07249881704658     -1.73865633524054
  Cl  -1.83950549632617      0.00398046951802      2.22611033773285
