29
Coordinates from ORCA-job orca E -1156.518825083628
  Ce  -0.01182859622008     -0.30107577493524     -0.66198848345308
  N   1.69414701327714     -2.18204821385502     -1.12511787696798
  C   1.81748342271948     -3.12505793315686      0.03507590816641
  C   1.78648047270418     -2.34806466320771      1.33216123471180
  N   0.48191359469661     -1.63850150606337      1.45084412309447
  H   1.52626553505727     -2.73072701768534     -1.96671648978161
  H   2.61045658540906     -1.76180201800980     -1.28350906807369
  H   2.73425328061738     -3.70739509476791     -0.03939687327337
  H   0.98090450123217     -3.82297014180513     -0.01272178111468
  H   2.58065195538017     -1.59947341285938      1.35568290327895
  H   1.95044556164835     -3.01863066264991      2.17469679449434
  H   0.51639986231943     -1.00787855708331      2.25023615577326
  H   -0.24548394106123     -2.31461189477684      1.67661869230485
  N   1.17234149328008      2.10545990804322      0.10346777006614
  O   1.64525121381089      3.11592792187840      0.43083993799318
  O   0.97473515779675      1.09077886216358      0.89757481094369
  O   0.77289963742127      1.83239697904459     -1.10465598333501
  C   -3.72677093824376      0.77969313632213      0.50657865540317
  C   -3.35903838039669     -0.51218651196781     -0.17499141294924
  O   -1.91198690066273     -0.54823691328104     -0.44727758284640
  H   -4.79883626691267      0.77794787709636      0.70043539565801
  H   -3.50586101439957      1.64042023055700     -0.12310559603020
  H   -3.21763778744852      0.88457120584304      1.46370660577986
  H   -3.84268481776911     -0.63190802174895     -1.14155289239667
  H   -3.56316626662583     -1.38600124383548      0.43944969354182
  N   -0.25678768106128      0.11486009637296     -3.21029402343011
  H   -1.11786358748295     -0.24568071351428     -3.61761622478550
  H   0.48598222557106     -0.20115249985158     -3.83128161410388
  H   -0.29346533465675      1.12524657773379     -3.34804277866863
