4
Coordinates from ORCA-job orca E -2128.712425603083
  Lu  0.14109384344066      0.19129134878412     -0.35173708468310
  I   -1.14752492599038     -1.64227630218623     -1.93556194379377
  I   -1.13583569175606      2.49456967787408      0.41965936591658
  I   2.73875677430579     -0.22169472447197      0.43103966256029
