6
Coordinates from ORCA-job orca E -2503.699447321097
  Er  -0.12754466898879     -0.21948474533845     -0.00398094408502
  I   0.73656690932666      0.43941458139018      2.74960661272611
  I   0.03078683332369      0.97052623587548     -2.70927145036434
  I   -1.44320840184092     -2.66197197598661     -0.08363192423740
  I   2.76745347509823     -0.58778186765056      0.46158661228849
  I   -1.96404414691888      2.05929777170995     -0.41429890632785
