4
Coordinates from ORCA-job orca E -3184.686655071049
  Th  0.31137103932185     -1.17116814926447      0.61422854352503
  Sn  -1.53825595494380     -0.71729601518401     -1.67912000990994
  Na  -0.21932193598467      1.97564137371693     -0.81987484711481
  Se  2.04269685160662      0.73471279073155      0.44816631349971
