4
Coordinates from ORCA-job orca E -1155.818041655413
  Pu  -0.39041147663901      0.89832104067995     -0.10473902614465
  Na  0.12549055203642     -2.25169258065076     -2.06352087501310
  Sb  -1.66615175050503      3.24299236176079      0.98156172769242
  Mg  2.52756267510763     -1.06773082178998     -0.24990182653466
