6
Coordinates from ORCA-job orca E -3897.704546266091
  Gd  1.32585033705546      0.10888080443683      0.47311619127892
  H   -1.06594177481784     -1.00980825937273      1.21891969129110
  Al  -2.04084044118986     -0.03764139104736     -1.66583127380726
  Sb  -0.50179631893857     -2.02416347692810     -0.06946621453347
  O   2.45444699661529      1.19570319301785      1.24630091289191
  Br  -0.17170879872446      1.76702912989351     -1.20302930712120
