5
Coordinates from ORCA-job orca E -1385.799290182085
  Tm  -0.21671040508338     -0.86847734776846      0.16219165474721
  O   1.92670658250515     -0.25992636044539      0.27833611030228
  O   1.36248664255251     -2.33437668689225      0.71543885392958
  O   -0.95685475217021     -1.06675584678293     -1.75682926193291
  O   -1.42113806780407     -0.11750375811097      1.67292264295384
