6
Coordinates from ORCA-job orca E -457.808892976125
  Pa  -0.15695526417466     -0.42867380036769     -0.04487630641402
  Li  1.19692588314431      0.39567284335972      2.53475298617680
  Li  -0.42635956097941      1.31328364175896     -2.51970883219135
  H   -1.14445766300175     -2.20274736751834     -0.01711719226460
  H   1.71762762496287     -0.28954731791524      0.91459826972933
  H   -1.18677101995137      1.21201200068259     -0.86763892503616
