7
Coordinates from ORCA-job orca E -16529.387878896152
  Tm  -0.00020681500738      0.00185666725247      0.00248043768692
  Br  0.67106918700900     -0.32866451012809      2.63408060897868
  Br  0.34331923370026     -0.65944633005826     -2.63188599626707
  Br  -0.34655008608914     -2.63375934771324     -0.65034582588700
  Br  -0.66640004731771      2.63564840088916     -0.32460178565223
  Br  -2.64426346913809      0.65062502192616      0.32220966181317
  Br  2.64304199684306      0.33373009783180      0.64805289932753
