36
Coordinates from ORCA-job orca E -2664.504168684158
  Lu  -0.32008046606537      0.54334912864621      1.89290906082572
  O   -0.72207180890526     -0.93838017332496      3.57148439025616
  H   -0.99493117416743     -0.66106881670846      4.45778887237489
  H   -0.69124045036925     -1.90407516986551      3.58273063756671
  C   2.21061157817312     -0.84125515166754     -2.42774960460325
  O   1.22384478140673     -0.75485809605012     -1.34643190163881
  P   1.48014713218906     -0.95066061060956      0.18609238280326
  O   1.59163589720297      0.63964512041555      0.78750655191704
  C   2.52726544336258      1.67426645674521      0.31813337241784
  O   2.96169294610877     -1.47404473491218      0.22705000175006
  C   3.58669280932759     -2.04193489007017      1.41067738418223
  H   2.94832703473003     -0.05206975853866     -2.31883341863852
  H   1.64529140045086     -0.71517097244678     -3.34291965561347
  H   2.68692755816519     -1.81501442216212     -2.40209640087870
  H   2.38340442792299      2.54231137554248      0.95202858523255
  H   2.28598625101763      1.91084169444033     -0.71385216746142
  H   3.53809162578071      1.28980655947379      0.40805716862524
  H   4.44133692105694     -2.60610841629306      1.05711748515938
  H   2.89339139693903     -2.70697650573733      1.92169975820729
  H   3.91549977539997     -1.24072150462113      2.06740649418593
  C   -3.83185858012860      1.41004125058197      0.52104599740816
  P   -2.28493094685865      0.66977626104114     -0.06666721236373
  C   -2.74601849288961     -0.84179901883433     -0.95208350109312
  C   -1.65298913424231      1.80781536529601     -1.33131747044878
  H   -4.50553435929318      1.56537004072957     -0.32201562598718
  H   -3.63239649050417      2.37253481139677      0.99096978890451
  H   -4.32090041728960      0.75711016759060      1.24256278671731
  H   -3.45811337723058     -0.60032889185978     -1.74144567438833
  H   -3.20816206448404     -1.55708422639486     -0.27332304143207
  H   -1.86373092445900     -1.29696875986556     -1.40067837874793
  H   -2.40941423373646      1.96375460171263     -2.10098380775162
  H   -0.76059768951734      1.39006077058960     -1.79711694700461
  H   -1.40823446207260      2.76982159019336     -0.88125788778529
  N   -0.79028761502295      2.23950775724985      3.34149539254250
  O   -1.05961469547758      3.04982734020119      4.14227568317678
  O   -0.35053959652024      2.62177982811583      2.13854090158323
