17
Coordinates from ORCA-job orca E -2119.750258087201
  Tm  0.05744382593965      0.16582601488445     -0.36877914982917
  N   2.75138969769231     -0.33433431146570      0.01950621391558
  O   1.99835930455272      0.18244737944701      0.89043522132416
  O   2.14237360364961     -0.61457229366506     -1.04242063350523
  N   0.08482884090955      2.92070589339507     -0.62790905650171
  O   -0.50652323877070      2.29819998153317      0.30413194252054
  O   0.64392335266356      2.14720564623473     -1.43584127890203
  S   -3.38218017060733     -2.19045801052783     -0.56760356075377
  C   -2.25093533822878     -1.36729309869825     -1.38415999449759
  N   -1.38012048844593     -0.74524569333412     -1.87691835545032
  O   -1.72716334447479      0.01448927588140      1.17528979394400
  H   -2.11824165274943      0.86233343847856      1.41360332832237
  H   -2.45334462334627     -0.60183858298283      0.95522295569071
  N   0.11909268298276     -2.14537415758436      0.54133324204306
  H   0.79158173308687     -2.69661582496112      0.01772684644086
  H   -0.77703591607568     -2.62371986830670      0.47247820284503
  H   0.40555173122189     -2.17845578832838      1.51380428239350
