6
Coordinates from ORCA-job orca E -3316.150344509483
  Er  -0.15338826474301     -0.25599982116048      0.00626027306890
  Cl  0.79231272681678      0.41763420587533      2.32525778192994
  Cl  0.00585858113021      0.93353498954331     -2.29423493093433
  Cl  -1.34659371467528     -2.35548622391156     -0.02715233366721
  Cl  2.38499075248636     -0.52113596328652      0.46852313833070
  Cl  -1.68317008101505      1.78145281293990     -0.47864392872801
