5
Coordinates from ORCA-job orca E -4056.414930323983
  U   1.20307619024601     -1.22534946426092      1.54741430974469
  P   0.30002718604951      0.73816290087457     -0.22985512417694
  S   0.39975217128294     -3.08028994320109     -0.07430388970017
  Te  0.01364525468597     -1.29718159000142     -1.69221899732260
  Br  -1.22201080226443      0.21761809658886      1.52102370145503
