5
Coordinates from ORCA-job orca E -409.808730801740
  Th  0.13944177620493     -0.92830464312957      0.21409619275865
  H   1.70483129624120      0.41062689494296      0.12192484356174
  H   0.85613561864388     -2.78979651196977      0.73615902915322
  H   -0.78195445993342     -1.04109683175637     -1.62705218380813
  H   -1.22396423115659     -0.29846890808725      1.62693211833452
