27
Coordinates from ORCA-job orca E -2635.085439117145
  Ce  0.29401826366108     -0.45854665111909      0.09305855983289
  O   0.77514823596616     -1.47428311324099      1.94853436398124
  S   0.03880537729039     -0.50777587644773      3.00589691016377
  O   -1.11406852681994     -1.21685142100135      3.53122040950371
  O   -0.49590961204108      0.52228555757917      1.89230158065633
  O   -1.65522896957751     -1.44701166236138     -2.92181444666563
  S   -1.00063756954597     -2.23170732715136     -1.86755112541817
  O   -1.50678185012924     -1.64698165177276     -0.48584014160299
  O   0.49517693051847     -1.67707823431360     -1.72997408190320
  C   -5.55962817509290     -0.29846946025325      0.02565968778490
  C   -5.38479494957419     -0.43791375238802     -1.34481322754871
  C   -4.23373518621438      0.04091345931619     -1.94610379580750
  C   -3.26105974923758      0.66324189693262     -1.17152030099240
  C   -3.42618754345454      0.78756663338464      0.20289276145728
  C   -4.58048861747845      0.30859006363667      0.79859837389306
  C   -2.00049398193234      1.16557596416811     -1.77141533651417
  O   -0.95599465364731      1.26016128641017     -1.14517336337780
  O   -2.03052831610005      1.61612929506596     -3.01535225284821
  H   -6.45309300047444     -0.68785841321376      0.49580063115489
  H   -6.13066102154562     -0.94718821996098     -1.93972031340631
  H   -4.05625045982348     -0.15705561770658     -2.99610502004592
  H   -2.64003543512498      1.22480733916904      0.80391316050587
  H   -4.69799870044631      0.38547190526383      1.87040824209810
  H   -2.89911953650851      1.45111231344836     -3.39671984133692
  S   4.64706915764942      2.21638477011057     -0.63200689060513
  C   3.29902009138534      1.36974752160268     -0.39534789919865
  N   2.31237299116327      0.74969089848953     -0.22225486136666
