5
Coordinates from ORCA-job orca E -707.677981292669
  Th  0.24348310876120     -0.91314386382318      0.31984158030007
  O   1.73032617259037      0.44109091599810      0.17591503884015
  O   0.96836641926519     -2.94376472918379      0.66722096276355
  O   -0.93489302396904     -1.04105206659159     -1.48222979937593
  O   -1.31279267664771     -0.19017025639954      1.39131221747217
