21
Coordinates from ORCA-job orca E -1839.412877153452
  Yb  -0.47038519468522     -0.87655541891731     -0.89567361741196
  C   2.42222632289634     -1.28217484704229      0.83358407322423
  C   2.72799888563073     -1.38223446014645     -0.68054293540484
  O   3.89551711525956     -1.60605290182243     -0.98584243270994
  O   1.72628450159358     -1.25384104197040     -1.45698577145085
  N   1.12570864392218     -0.65851261485356      1.11867547208510
  H   3.26604546363006     -0.78435269315828      1.31590377753431
  H   2.39848898957495     -2.30793305415520      1.20571042854838
  H   1.18250961916867      0.35306097913665      1.10759162092798
  H   0.76344605360938     -0.92766236368927      2.02296522719557
  C   -2.15396698749102      1.46511627991477      1.00997076541807
  O   -0.96448964208170      1.43861216144119      0.24858190140025
  H   -2.95214855949084      0.89728403531750      0.52521292357592
  H   -2.50215211219068      2.49173123451368      1.17128187773532
  H   -1.96565242250892      1.00739392725502      1.98185253703253
  H   -1.21262326191765      1.46763761000006     -0.73588039686372
  O   -1.42277935253550      0.75217644363538     -2.09979238139316
  H   -1.54209424973508      1.20097921285196     -2.93130997005261
  N   -2.28311960435952     -2.90052443075739      0.20431087444090
  O   -1.73123182474282     -2.99526863142529     -0.91830451196403
  O   -2.00998238354652     -1.84627942612830      0.82389053813248
