5
Coordinates from ORCA-job orca E -3429.246177810609
  Np  0.02481165898406     -1.10787988821049     -0.23572504344883
  Ge  1.73317601869795      0.86364473226214      1.08432950193363
  F   0.66044429161912     -2.95729228681524      0.54405672285856
  P   -1.29704430057151     -1.66639983537203     -2.24900942102012
  S   -0.42689766872962      0.22088727813564      1.92840823967677
