4
Coordinates from ORCA-job orca E -610.824106635573
  Am  1.68636446246239      1.01220702261986      1.35158607122920
  Li  -0.27485376242243     -0.66164459939100     -2.14976768421091
  Li  -1.18931329116284      0.52406399692034      0.00227351778822
  H   0.37429259112288     -0.05273642014920     -0.64069190480650
