7
Coordinates from ORCA-job orca E -3779.976813889682
  Th  -0.98822066691376     -0.04681437084539     -0.70849172989971
  Na  -0.07633647349107     -0.00447524586999      2.85804427498006
  Be  0.44123844341570     -0.05221696403316     -2.87092136430457
  Cl  0.58813720078937     -1.67757515745084      0.77239562144567
  Br  0.46937951251664      1.93503847127009      0.73149757579375
  H   -2.96894463081839     -0.12086554236381     -0.07667947418310
  Na  2.53475661450151     -0.03310119070691     -0.70585490383211
