44
Coordinates from ORCA-job orca E -1695.838450013570
  Ce  -0.81377070635872     -0.88859807025911      0.28091110828907
  C   -0.46827571873859      3.78770097642972      5.24811054658378
  C   -0.70540957470779      2.45520197566491      5.57364037895130
  C   -0.78415369346794      1.51041129503939      4.57184853509613
  C   -0.62407123613572      1.91248221876821      3.23839136924258
  C   -0.38698244840082      3.25531811435742      2.91302501917836
  C   -0.30905813777919      4.18942148650588      3.92430447752516
  C   -0.70809208555118      0.93213587408114      2.19577594312897
  O   -0.90014983020362     -0.32810310515172      2.42596124418258
  O   -0.60019556347675      1.23133567776999      0.93211241199819
  H   -0.40735314687633      4.52448008646047      6.03742235019307
  H   -0.82855622615190      2.16355042000649      6.60637281631697
  H   -0.97128627077541      0.47143627962231      4.80334011735158
  H   -0.26569083595938      3.54801193060882      1.87973832537536
  H   -0.12573381622755      5.22834096200124      3.69227940004600
  C   -4.35135536666852     -0.66801396432943     -0.36012138468425
  O   -3.04540228909253     -0.05937746957884     -0.06807796619379
  H   -4.76871547659103     -0.19420971338798     -1.24299623579666
  H   -4.99956332706690     -0.53920116995913      0.50096451184401
  H   -4.17010091561780     -1.71976804944938     -0.54508219759016
  H   -3.17595021053681      0.88444887529300      0.08507239620503
  C   1.51297023291253      1.10129161288388     -3.24321362207410
  C   0.33019656889072      1.20469044299033     -2.32009373347452
  O   -0.07936408644634     -0.14614500837123     -1.84797556820207
  H   1.78480461602052      2.10043489337548     -3.58174620003946
  H   1.27626491052419      0.51345383938466     -4.13098863615046
  H   2.37745915343002      0.66772167340436     -2.74367510118881
  H   -0.53988588511431      1.64211860198779     -2.80424771353639
  H   0.55149210159202      1.75602789020998     -1.41005080749372
  H   -0.13139769900473     -0.73321483424021     -2.61471534275309
  I   -1.51316996775126     -3.51785140401839     -0.52925308240312
  C   2.42809007115030     -1.91957494455150     -0.21463549957619
  C   3.46665528745421     -2.63918642873342      0.62015030744212
  C   2.61439101281410     -3.38579686719405      1.64558205504381
  C   1.56456374399748     -2.36005578567889      2.00467613671069
  O   1.32745288740585     -1.62350348572736      0.73481058651250
  H   2.01241407001771     -2.55617325580462     -0.99530180957861
  H   2.75713277126799     -0.96970410901182     -0.62658358632534
  H   4.12640024022212     -1.92462437896439      1.11074987144675
  H   4.07282053384468     -3.30375576385665      0.00986693638305
  H   3.18015936167355     -3.69599992733437      2.52039661533847
  H   2.15304875094496     -4.26806392354229      1.20224321386217
  H   1.90802132317173     -1.62778577881896      2.73203522660027
  H   0.61284687736640     -2.78470768888173      2.32397658621231
