18
Coordinates from ORCA-job orca E -1362.123684733958
  Ho  -0.15729190271873     -0.32484948820736     -0.69284775550017
  C   -3.17170950836395      1.05873929250559     -0.06081916023223
  O   -1.88188616431954      0.53218078684345     -0.19233449214466
  H   -3.18586620832107      2.11951653713643     -0.32176691846408
  H   -3.52889545662913      0.95675488587769      0.96724610323043
  H   -3.87393361148403      0.53841497564917     -0.71567260647159
  C   1.09877221789282      0.89414135056916     -2.37312478468708
  N   1.88842687633222      1.65540486081428     -2.74551088549722
  C   -0.49031127426038     -2.61669787808626     -1.41621634649288
  N   -0.53991009588715     -3.76354864543522     -1.26069965210842
  N   1.41065176688292      1.21403206214824      0.57404032145326
  H   0.91574563661651      1.86943195233891      1.16945195284049
  H   1.79918784860752      1.74508002082326     -0.20493555431079
  H   2.19620397550253      0.86391352612385      1.11006689541693
  N   0.21595475927776     -1.77153406915890      1.34377451387858
  H   -0.04932155284193     -2.67843496092891      0.95964084553397
  H   -0.42529088828725     -1.56590418715449      2.10237135691469
  H   1.13407358200093     -1.88674102185887      1.75733616664074
