5
Coordinates from ORCA-job orca E -2349.501404932009
  Yb  0.15028953808570     -0.87481239185032      0.21647313716470
  I   2.99659453876472      0.08897142309161      0.40519955969847
  I   2.12456222996299     -2.99958612731576      1.01306537134809
  I   -2.03296603346878     -0.79270034524878     -1.85235261017326
  I   -2.54399027334464     -0.06891255867674      1.28967454196201
