5
Coordinates from ORCA-job orca E -1130.736820799917
  Md  -0.76172209885612     -1.40389368949076     -0.02346303188774
  Be  1.32813951558889      0.89516242181039     -1.50725863729250
  O   0.46695391554468     -2.74455465512687      1.28108454278911
  O   0.45895721111442     -0.08602657024260     -0.92205074026734
  O   -0.79783854339188     -1.30772750695015      2.24374786665846
