22
Coordinates from ORCA-job orca E -3913.018249407244
  Er  0.00004892798665      0.28341552738001     -0.56393624154257
  N   -0.50009514579924      2.50932775739991      0.17222555307455
  C   -0.02647712867717      2.65407813713546      1.58978596225734
  C   -0.45836318288578      1.44103723232446      2.38796825910768
  N   0.09665294989114      0.18026008225920      1.80270001162673
  C   1.47385034608193     -0.18366591266090      2.27131383544359
  C   2.50009394638318     -0.08150685628458      1.15513771866107
  N   2.03421204273457     -0.85908331658971     -0.03644868996764
  H   -0.14830406860590      3.29681895451942     -0.37145568350974
  H   -1.51381653241150      2.63744882825769      0.16033909132041
  H   -0.42899381463318      3.56027619771070      2.03953404004216
  H   1.05952703010846      2.75612756649395      1.57328718431130
  H   -1.54621685651674      1.35459887754705      2.37315473961349
  H   -0.15550024177855      1.54426997726712      3.42987924219240
  H   -0.53026214487872     -0.56607672690875      2.09271245030219
  H   1.44544772393476     -1.20576310739286      2.64940788980618
  H   1.77248742188790      0.45475866751619      3.10210402044858
  H   3.46827976262751     -0.43645897312760      1.50573099631875
  H   2.64328028075293      0.95786258901094      0.84074334408636
  H   1.91056216973326     -1.83794334702698      0.22440167605781
  H   2.77720034076563     -0.87976145768221     -0.73412413340220
  Br  -2.09021382670118     -1.06622069714852     -0.78406126624844
