31
Coordinates from ORCA-job orca E -1417.913698075463
  Eu  -0.94245961179555      1.00844240436557      0.83361111304528
  C   1.78987090047380      1.15743995223357     -1.11759213312610
  C   3.18391516353144      1.68893282841461     -0.86025795261721
  C   3.68710904679835      0.74210224460818      0.22919020973730
  C   2.46392953520360      0.56670802133033      1.10840168792579
  O   1.31850052485712      0.70810155806986      0.19353931697201
  H   1.79939913564277      0.29433182357473     -1.78368423972769
  H   1.08481795414025      1.90249624577486     -1.48447275740231
  H   3.13899451829709      2.71386004162520     -0.49175720143912
  H   3.79691873698595      1.67098612243196     -1.75778237095883
  H   4.52588599970212      1.14654080116700      0.78991056657773
  H   3.99119532779310     -0.21086972108978     -0.20352287988193
  H   2.37685837773676      1.34287075467375      1.86579090284947
  H   2.38887979433208     -0.40779301766281      1.58445952239624
  N   -1.02144568835824      0.83244006084152      3.67531482501552
  O   -2.04261702751642      0.74701696464239      2.94405456571209
  O   0.04186895477063      0.97252569269445      3.01161663070491
  C   -0.85676275004427     -2.09604225753496      1.20649962818270
  C   -1.90463342113753     -2.13817714361822      0.12077891214369
  O   -2.07435667490643     -0.76951821681160     -0.36102536806471
  H   -0.65548504252827     -3.09904556997256      1.57633355216173
  H   -1.19765796684244     -1.51650399429645      2.06964970333672
  H   0.09272225776846     -1.70842644641105      0.82231975452120
  H   -2.86029195288805     -2.49077357265915      0.50271791877848
  H   -1.59159241822473     -2.75895528880838     -0.71589084106679
  H   -2.73972518342280     -0.73627218670443     -1.05494925854504
  C   -1.50509100648097      4.11266809147795     -0.46350414369687
  O   -1.28478320034886      2.78503115379854     -0.03970920457365
  H   -0.57562141337080      4.68210604245928     -0.43355822070246
  H   -2.23661492988087      4.60184129231426      0.17877674518705
  H   -1.88282794028736      4.11703531907122     -1.48635898344527
