5
Coordinates from ORCA-job orca E -900.190743100174
  Md  0.13892070881698     -1.40429674524863     -0.17472262318817
  Li  1.34535601813114      1.14097322911189      0.90189802721453
  H   0.56545607402198     -3.19623072501961      0.58836291872829
  H   -1.32257396940530     -1.35209574892423     -1.52825170220755
  H   -0.03266883156481      0.16460999008058      1.28477337945291
