5
Coordinates from ORCA-job orca E -1126.309569453839
  Pr  -0.53525362700146     -0.92709524641587      0.99804002780650
  Si  1.58624700652789     -0.38767789543278     -0.61742431501210
  Li  1.80072716146534     -2.83031897898779     -0.63928445426721
  Be  0.04392281595129     -1.37161900970763     -1.58165452761267
  I   -2.20115335694306      0.86967113054408      2.91238326908550
