5
Coordinates from ORCA-job orca E -4060.472721355341
  Ac  -1.16432661645884     -1.93905650460447      0.36672097085370
  K   1.74284910400432      0.44570635799200      0.13393638866665
  Sn  1.80587575597409     -3.16191584085812      1.01751727849439
  I   -0.64136581738694     -0.50185711061728     -2.44582090488008
  Br  -1.04854242613263      0.51008309808788      1.99970626686534
