5
Coordinates from ORCA-job orca E -4142.324944797876
  Nd  1.15461087299235     -1.24532549066308      1.60447637048266
  P   0.35371032241781      0.71112825118149     -0.20294017708802
  S   0.45422013803548     -3.06577132254848     -0.15398245749492
  Te  -0.04860045743619     -1.31632537470055     -1.61473788160219
  Br  -1.21945087600946      0.26925393673062      1.43924414570248
