35
Coordinates from ORCA-job orca E -1806.608320612145
  Dy  -0.16187143587869      0.27902009969459      0.87963009404501
  C   -1.85575025804246      1.49175420079868      3.51316307589026
  O   -0.79820900674269      0.55781941645656      3.01373617551147
  H   -1.38713308105149      2.21203130477083      4.17562564435960
  H   -2.61453374970901      0.90471526417025      4.01962468951054
  H   -2.27306764357555      1.99023019870358      2.64088884663589
  H   -0.41641572737301      0.11654646419602      3.78829663521074
  C   1.66832118777825     -1.63920784383924     -0.99081328667389
  C   3.14148482998527     -1.96389138032089     -1.02108053442181
  C   3.41502307925007     -2.42177540357242      0.41132106475356
  C   2.66598779671905     -1.41412227730602      1.25189616735740
  O   1.46088246083647     -1.03415273674186      0.38713469809000
  H   1.03842491669090     -2.52469164324844     -1.03048048381668
  H   1.35152581430609     -0.89130298975297     -1.71880427635698
  H   3.73071865360892     -1.08507670693878     -1.28115070425957
  H   3.34907221401013     -2.74294416972357     -1.75219188832093
  H   4.47552799804522     -2.40872107379255      0.65512897769598
  H   3.03760193952352     -3.42864032583276      0.58361044374142
  H   3.22228719338962     -0.49181696828640      1.40396881694551
  H   2.26977264496817     -1.80645709159992      2.18509459131805
  C   0.85899138924189      2.70826767787982      0.19899454283312
  O   1.29077060160485      3.69409401615277     -0.07568030872665
  C   -3.84873042545850     -0.85237788553416      0.51505937267649
  P   -2.49061788824717     -0.45653469406506     -0.61640024544767
  C   -2.22126306248942     -1.91820565466102     -1.64869648967545
  C   -3.06468825184051      0.87262879739855     -1.70215825342458
  H   -4.71880001651452     -1.13816062792947     -0.08068465794729
  H   -4.12493284376192      0.01090342098628      1.11976300793355
  H   -3.59117713520196     -1.68907479406336      1.16399679014603
  H   -3.15987293644717     -2.15299820613217     -2.15621270333838
  H   -1.93751043001873     -2.78020164979508     -1.04541269101881
  H   -1.46353760891354     -1.72988608252134     -2.40852922079001
  H   -3.97074436040670      0.53102134167458     -2.20839179354828
  H   -2.32041023728046      1.11212298502052     -2.46111484673031
  H   -3.31194789348602      1.77026067788314     -1.13583708003542
