5
Coordinates from ORCA-job orca E -3872.544968094542
  Md  -0.16574492312793     -0.72201405572252      1.18743296665490
  Sb  1.56382048165570      0.80976874088398     -0.78137127501523
  Se  0.67122760758052     -3.11583966272034      0.09321061164823
  Sb  0.31608048665643     -1.45165179393119     -1.91094008351534
  F   -1.69089365276472     -0.16730322850991      2.48372778022744
