59
Coordinates from ORCA-job orca E -4281.632352404515
  La  0.05491226583672     -0.14246235679371     -0.05630359044829
  N   -1.14394131766295      1.16571162380050     -2.06141211721868
  C   -1.08094110710038      2.62180411832060     -1.86179628876265
  C   -1.66140892521402      2.98136171978915     -0.50257355430649
  N   -0.96217633186670      2.33706275197126      0.62906590670103
  C   -0.00715356534521      3.20685069114832      1.32923530156259
  C   1.29759957389125      3.31856025276101      0.56036616681068
  N   1.82866308864611      1.96770534359809      0.30965826833296
  H   -0.69915954677171      0.89533614157098     -2.93152144144009
  H   -2.11071319107556      0.85704505972001     -2.09211075085397
  H   -1.62688524165719      3.17194128627697     -2.63221507128394
  H   -0.03461181007647      2.91936445268578     -1.93642983486389
  H   -2.70020719683547      2.64945553013718     -0.47521048799059
  H   -1.66415420032004      4.06871806890236     -0.38422961762998
  H   -1.67518025313098      2.02796459269394      1.28150276424753
  H   0.19084327072228      2.76456972215276      2.30903411286688
  H   -0.42168187731468      4.20415550964988      1.50709115568962
  H   1.99788657523994      3.94499211069924      1.11545669997100
  H   1.12679449570015      3.81210317922418     -0.39528106769896
  H   2.42319645512013      1.67481569783385      1.07772283639654
  H   2.42392753644480      1.94858362107209     -0.51117813579676
  C   3.18232355773081     -0.41123270529942     -3.65674980085933
  C   2.75708117885241     -0.48249612273683     -2.21688456625027
  C   3.69077128681315     -0.89862869662961     -1.25294144615138
  C   3.42893479588340     -1.05756318487272      0.11094426979294
  O   2.29445899380061     -0.86065686106097      0.65515874987516
  C   4.53261250858195     -1.49479621502790      1.03130979298516
  O   1.55825057749014     -0.14812532174986     -1.97327066197556
  H   4.23218882796060     -0.64974650410560     -3.79822659477932
  H   2.97873555140165      0.58772848119965     -4.04220860957864
  H   2.57363686240730     -1.10913261477606     -4.23271094666154
  H   4.68757940165055     -1.12757619750356     -1.59586427582991
  H   5.47445134306968     -1.64951521712180      0.51356706580798
  H   4.23483858650982     -2.41826548755053      1.52887327028660
  H   4.66681467284444     -0.74328206528939      1.81071122267907
  C   -3.29347449904866     -3.15914941981784     -1.92735582849953
  C   -1.98048248327427     -2.54583386805361     -1.84319561311047
  N   -0.95815781506643     -2.03554355257682     -1.74070837265327
  H   -3.92640686224743     -2.68604345677801     -1.17608417663765
  H   -3.21858493182231     -4.22665279595150     -1.73069342574358
  H   -3.71571440693165     -3.00313769138745     -2.91745991879925
  F   0.55304224780978      0.17579284500918      4.54105848541955
  P   1.17303298608700     -0.17458005426921      3.14691303178773
  F   1.79319422975983     -1.55710233291659      3.52110395509092
  F   2.47247288946284      0.71098504346748      3.25746050931979
  C   -0.98408710043118     -2.97683532463005      2.19275636577410
  C   -1.46286601046457     -4.24639482242484      1.51148986808791
  C   -0.23883678016895     -4.69523647552832      0.68615674025183
  C   0.71550318443443     -3.49562669506518      0.73910909608728
  O   -0.07609441944897     -2.39660186148569      1.23412894861638
  H   -0.42329007386339     -3.19575341330423      3.10631711968095
  H   -1.76655041455479     -2.25112610720940      2.39145233545433
  H   -2.30796497383989     -4.00924879844352      0.86598221056740
  H   -1.78728356646272     -4.99690326639676      2.22822222588801
  H   -0.51479862896681     -4.93050945136002     -0.33984834608218
  H   0.23350455862424     -5.57862093624885      1.10974763683358
  H   1.11821071732076     -3.21264406142924     -0.23174853667202
  H   1.54399060956894     -3.65756395249076      1.43111371591936
  Br  -2.87034529870268     -0.33111995539820      0.68910324979337
