4
Coordinates from ORCA-job orca E -2209.540543733439
  Er  0.15596066919705      0.21529119753475     -0.36371517254820
  S   -1.04226477131356     -1.49516316490722     -1.80357939319367
  S   -1.06666532486734      2.31506913681588      0.36656521838547
  S   2.54945942698385     -0.21330716944340      0.36412934735642
