22
Coordinates from ORCA-job orca E -2122.575042388082
  Ho  -0.37854610413945      0.80515897961241      0.26700079476008
  C   4.03192398702955     -0.43224362571592      0.65844597595194
  C   2.66601187808297     -0.03748697104875      1.16347662586047
  C   2.40251753505045     -0.09824467658430      2.53718375635086
  C   1.17457490921251      0.27313312978450      3.10770655491266
  O   0.17803624009704      0.69326623518856      2.46664723174318
  C   1.00291202156724      0.17856741352370      4.60380100386753
  O   1.84264058631152      0.33232857181419      0.28302781473162
  H   4.70635431893326     -0.72712752113903      1.45922376832918
  H   4.45737557152770      0.40779470748357      0.10933073582688
  H   3.91608740475945     -1.25572739395741     -0.04620646201476
  H   3.18884189303660     -0.43814889362761      3.19394620889357
  H   1.90671451048852     -0.15336521108144      5.10978278826174
  H   0.18970186786222     -0.51679955856348      4.81241437225957
  H   0.70288877660635      1.15455880128417      4.98476351843671
  N   -0.27406267760295      3.64273942137110     -0.10771983404514
  O   0.25008338115911      2.81562905104460     -0.89622746750525
  O   -0.86386371184306      3.10339780227883      0.85711679957981
  O   -2.64315619723095      0.39399587785023     -0.13866125327141
  S   -2.08538516766624     -0.95512327929999     -0.66091623678295
  O   -1.24760255468036     -1.40118348718659      0.55356844401873
  O   -0.96554846856154     -0.44391937303135     -1.60670514016511
