5
Coordinates from ORCA-job orca E -10327.813185270283
  La  0.29143685775650     -0.72512311697531     -0.15685254630134
  Br  2.47759743417749      0.96660141753374     -0.13898294644093
  Br  0.34480717591873     -3.10990440692245      1.57713069037853
  Br  -1.11801881747987     -0.91988272877301     -2.52495905464052
  Br  -1.30133265037287     -0.85873116486297      2.31572385700426
