4
Coordinates from ORCA-job orca E -755.324220157182
  Cf  -0.51864650578528     -0.98261959881492      1.77077454618151
  Li  -0.27900864225065     -0.51793429842588     -2.20713970523005
  Li  -0.31097177286017      2.13590071589005     -0.63121100477677
  Li  1.70511692089610      0.18654318135075     -0.36902383617469
