4
Coordinates from ORCA-job orca E -1784.147993790523
  Md  0.29880714043974     -0.03433512216863     -0.32664233004284
  I   -1.52519579359995     -1.44515476283108     -2.00251377876893
  I   -1.16735659092868      2.32554687333784      0.26745780398980
  I   2.99023524408889     -0.02416698833813      0.62509830482197
