28
Coordinates from ORCA-job orca E -1258.516245581587
  Ce  0.02019473313341      1.01995620607336      0.76708729896125
  O   0.52424602038456      0.62466663929663      3.03756990102012
  H   1.36426955137349      0.28853263853786      3.41323925876768
  H   -0.05109952357030      0.73685152676068      3.82188707524833
  N   -0.11522722592014      3.49311227668741      0.74790958631861
  H   0.12555435256334      3.93514229662743     -0.14942070517659
  H   0.50545693684773      3.95898193661568      1.42331949741127
  H   -1.04129870546228      3.88242977598217      0.96671681910098
  C   3.26323358770097      1.09439094005375     -0.35241876069832
  O   1.87464386339541      0.40914353373293     -0.33180524200032
  H   3.43427596560931      1.40621075705180     -1.37848279628269
  H   3.97333889912098      0.35071220166194     -0.00244935679599
  H   3.19482898709775      1.94047155970964      0.32777797518283
  H   1.95869645565683     -0.37216001403138     -0.91314877693649
  C   -3.43804721414526     -1.84274561846136      0.98234411709997
  P   -3.11782398784738     -0.67229991862855     -0.30191764397171
  O   -1.61527661014934      0.15902440034855      0.20874950522056
  C   -2.71293222208890     -1.40834188461914     -1.85638248456659
  C   -4.32286871077059      0.61468134159347     -0.41594318881350
  H   -4.35243671607179     -2.37016797911669      0.67086083623942
  H   -3.64772328687537     -1.35731047805878      1.93616198216019
  H   -2.64381368011513     -2.58528885105278      1.06913259260463
  H   -3.63459814614778     -1.91120122122376     -2.18651107290774
  H   -1.94030176359576     -2.17192821255929     -1.75971709678740
  H   -2.45865778085040     -0.66201115872582     -2.61014308152544
  H   -5.25127991873663      0.11352943013180     -0.72938729009383
  H   -4.06931470093844      1.34616543092093     -1.18422385188810
  H   -4.51393915959810      1.08505244469143      0.54929490310881
