4
Coordinates from ORCA-job orca E -2213.093173831823
  La  -1.55360853060209     -0.27303113164376      0.74568840017542
  Al  0.27961262969260     -0.40025003071629     -1.85161916808609
  Ga  0.47534880718462      1.72654379429011     -0.50287472505604
  Be  1.39513709372486     -0.23137263193005      0.17220549296672
