4
Coordinates from ORCA-job orca E -8161.724497386212
  Pa  0.00775313828851      0.00990475377001     -0.01346107459850
  Br  -1.02837985795285     -1.48646158854645     -1.96845809743453
  Br  -1.04170229851551      2.45071076326218      0.27311714099931
  Br  2.65881901817986     -0.15226392848574      0.27220203103372
