25
Coordinates from ORCA-job orca E -2112.619740902589
  Ho  -0.41831836657442      1.49754004796130      1.85876788823342
  C   2.25191046909796     -0.06661725539019      0.89800536192201
  C   1.93866166444589     -0.45194346611328      2.35210506411573
  O   2.64628724333303     -1.23319412651415      2.93185535247480
  O   0.89741008833851      0.17214762082957      2.85061251692104
  N   1.05514005709713      0.45543228470207      0.19685317484795
  H   2.69887960820050     -0.91907049502444      0.39141598651418
  H   2.99757547598832      0.72767433782987      0.93865432427406
  H   0.52522222834562     -0.30543999400920     -0.21618194820580
  H   1.32654945094322      1.06204001174219     -0.56843902062146
  C   -6.81956875893113     -0.77958163371384      0.73464999468644
  C   -6.45466668296867     -0.33466167982116      1.99863399102564
  C   -5.16764560768268      0.12392909995771      2.22415581110205
  C   -4.24615578348237      0.12736936583905      1.18194523969732
  C   -4.60949197304805     -0.32208966398653     -0.08335464405273
  C   -5.89999052759457     -0.77208346109345     -0.30622316494962
  C   -2.87084884884619      0.61676796124552      1.42303411334271
  O   -2.55723903261179      1.12191620005961      2.54784373593198
  O   -1.98733455315872      0.53871687703628      0.50613718775971
  H   -7.82657126308197     -1.13392106792561      0.55947184514973
  H   -7.17411424715851     -0.34492102447101      2.80561597076832
  H   -4.86200203788962      0.47841138184311      3.19820258367411
  H   -3.87680349497998     -0.30821678833922     -0.87758685479816
  H   -6.19087725939113     -1.11685045900958     -1.28885927275861
  Cl  0.35409215160972      3.82194592636535      1.44558476294508
