47
Coordinates from ORCA-job orca E -2729.322207940825
  Er  0.32648558300238     -0.28593468504144     -0.31880472770083
  C   -2.18905261452665      5.98505279259454     -0.49735953449546
  C   -1.89806205664696      5.39060938940926      0.72590690148318
  C   -1.36209116990404      4.11788476474570      0.75982116216471
  C   -1.11901796077579      3.44470762849746     -0.44119237673272
  C   -1.41079319249724      4.04375121508745     -1.67038053497034
  C   -1.94710109296071      5.31641087189792     -1.69297434850653
  C   -0.56355722006204      2.10723474844951     -0.41099471452048
  O   -0.32002122604107      1.43762693916026     -1.48697612192021
  O   -0.29277776519802      1.50585005182612      0.70436947265447
  H   -2.60894303106102      6.98141710703174     -0.51933871183419
  H   -2.09066644467189      5.92287872403972      1.64619396139349
  H   -1.12861400711796      3.63920427901253      1.70016806085885
  H   -1.21492780413223      3.50762550478499     -2.58813541618389
  H   -2.17803189393026      5.79162392258676     -2.63539393188082
  F   -0.06248479788089     -0.07495954845364     -4.30212110475384
  P   -0.37290117056903     -1.52641865314789     -3.86192989343473
  F   0.44574286152482     -1.39080428095308     -2.37764932335547
  F   -1.76909419750923     -1.28733434604645     -3.19704858053866
  C   7.12033536087303     -0.31711446941749      1.67483504617677
  C   6.16042833184314     -1.14925879745540      2.23979139940114
  C   4.86406568233557     -1.11840587846641      1.76820972441442
  C   4.52911323066562     -0.24385200790921      0.72498425599337
  C   5.50401101290678      0.59095442433727      0.15717287501132
  C   6.79574816141442      0.55065806780631      0.63449594746426
  C   3.16695082743209     -0.23917182056754      0.27167866947590
  O   2.25529525681152     -0.98874869588624      0.66277562626152
  O   2.72663272530427      0.62768001738777     -0.66902434566320
  H   8.13566896590607     -0.34362335122375      2.04608620089287
  H   6.42758410516279     -1.81717621535237      3.04556336012982
  H   4.10399017924800     -1.75567015489569      2.19660984081689
  H   5.28403517666807      1.26404463705012     -0.66376248459442
  H   7.55359213985923      1.18696865301859      0.20163568744293
  H   3.36922712387597      1.29092634445142     -0.95395554869183
  C   -1.59467497663819     -2.95057490465860      0.46522110926030
  C   -2.98733422053676     -3.08331064257796      1.04207106996081
  C   -3.76810771557134     -2.01998869079329      0.27009436847107
  C   -2.79693904132684     -0.86046310517736      0.22797937732496
  O   -1.45669005330119     -1.50694524899102      0.16674894907283
  H   -1.48496437661569     -3.48611378810090     -0.47689294752121
  H   -0.79514816916453     -3.22259619136100      1.15078779571887
  H   -2.98259694068824     -2.86464826172666      2.10933419787487
  H   -3.38250264635350     -4.08572983213159      0.89881979260404
  H   -4.69696826611938     -1.73983423554627      0.76027200670266
  H   -4.00139932080738     -2.36367136328581     -0.73738160770805
  H   -2.81582693637760     -0.25877729254128      1.13453562973592
  H   -2.89171641584835     -0.22658362146748     -0.65214623375536
