5
Coordinates from ORCA-job orca E -914.039951400006
  Md  -0.99532691952178     -0.46322724670350      1.13656324239032
  Li  1.92881580299260      0.18284144241423     -0.58568737768558
  Li  1.11290984501691     -2.96380005529316      0.01387658531906
  Li  0.51288880374710     -1.53130747669280     -2.40859625464290
  H   -1.86479753223482      0.12845333627522      2.91590380461911
