23
Coordinates from ORCA-job orca E -1666.017589471404
  Gd  0.12019897504799     -0.12645058184260     -0.01127186167944
  C   2.84495068254199      0.39986224784060     -0.55528843019201
  O   3.88125824282972      0.66413865206403     -0.86753607751831
  Cl  -0.27733170684436     -0.04299757491323     -2.38755470765251
  N   1.06551604140358     -2.47836458775761      0.03065507324166
  H   1.35476747189044     -2.72828272900883     -0.91523163160515
  H   0.38316034774226     -3.19013751183910      0.28882803457198
  H   1.87683998217802     -2.66621358349581      0.61727476921614
  C   -2.87023244066605     -1.09420823393391      1.60616856609735
  O   -2.09977768874882     -0.75464312842909      0.40277342466503
  H   -3.32073645512676     -2.07297325504825      1.47535079242619
  H   -3.62651743981922     -0.33374603846043      1.77301920029818
  H   -2.17113842320280     -1.11775524194777      2.43683930497187
  H   -2.69447673566737     -0.77282992148919     -0.35901162583007
  C   0.55391417556087      1.59158860218486      2.62577653698992
  C   0.42226794563458      2.76348337124908      1.68472526673591
  O   0.18130276978532      2.20729007360980      0.34783161911469
  H   0.72984036290874      1.93633309574021      3.64331722196520
  H   1.41724387318802      0.96236376738691      2.37392948931480
  H   -0.36988923834613      1.00128246174005      2.66461326538162
  H   1.33241262385354      3.35745046620879      1.64883575565219
  H   -0.42081231173306      3.39806511808215      1.94617941269155
  H   0.05953894558953      2.91414453205931     -0.29852339885686
