6
Coordinates from ORCA-job orca E -742.660563551034
  Cf  -0.51454532931335     -0.82688590652768     -0.15303778753519
  Li  0.87957885538968      0.99519329253379      1.70760407501472
  H   -0.42517531177353      1.21220010330587     -1.22891936305373
  H   -1.13847744838314     -2.72591858166546     -0.33007792368637
  H   1.37646481840590     -0.14161691511659      0.49224269674783
  H   -0.17783558432556      1.48702800747007     -0.48780169748726
