4
Coordinates from ORCA-job orca E -1429.917350060045
  U   0.14098108726363      0.42932630186692     -0.24171469383023
  Sn  -0.96141600414107     -1.76081609643983     -1.95806156878659
  P   -0.99523144444316      2.43477805358231      0.48957242580575
  S   2.41215636132060     -0.28139825900940      0.27360383681107
