24
Coordinates from ORCA-job orca E -4774.472024328289
  Ce  0.77698777699786      1.06963352392377      0.21379089425858
  F   2.74773964775205     -1.88896263067013     -1.26261980163097
  P   3.98933045445982     -1.02899812917022     -0.86090447787807
  F   3.07332913454627      0.17777503860812     -0.16328208812659
  F   4.20173422172325     -0.27782035785170     -2.20459184869431
  F   1.72398964256002      2.61809160038779      0.99043829695631
  C   -3.91214349405614      1.72457096160682     -1.85070408174042
  O   -2.87694965871792      2.22630146405350     -0.97124406167118
  P   -2.19685040486474      1.26219720544647      0.08341967068500
  O   -1.14699918911585      2.37206032464870      0.74816170992918
  C   -1.50661559051363      3.72790647801536      1.16519983153399
  O   -3.35792612706842      1.09503030446665      1.14715034883838
  C   -3.36202791877159      0.02572230351254      2.12439754469087
  H   -4.10757185319446      2.51459604795823     -2.56601259646681
  H   -4.80886432589034      1.50804500640490     -1.27598448426823
  H   -3.56509241386273      0.83371750748758     -2.37240159133055
  H   -0.62473366807449      4.14854735186962      1.63496204837605
  H   -2.32975349220371      3.66145337355952      1.86989849181951
  H   -1.79190593628701      4.29370919745221      0.28490111867255
  H   -4.39837084956018     -0.12400146118617      2.40471893000923
  H   -2.77899140097233      0.32451826653118      2.99164018265423
  H   -2.95388088706589     -0.88703482803478      1.69555516697225
  Br  0.53749964761610      1.07615929150547     -2.40008369193312
  I   0.41786668456441     -1.15951784052581      1.95949448834406
