42
Coordinates from ORCA-job orca E -2534.935957287769
  Lu         -0.87355653456726      0.00504628719851     -0.03522687203588
  N           0.59336418504980     -2.06862872356739      0.21086532856434
  C           0.65930890491094     -2.98617951597459     -0.94519662009691
  C          -0.70725718521142     -3.01682272365865     -1.61280617635378
  N          -1.15133407360783     -1.65285884208521     -1.94897993325571
  C          -0.66070961780429     -1.12078782116729     -3.24054591760792
  C           0.52571172372546     -0.17676098531291     -3.06977533747231
  N           0.17909105121767      0.84737924726362     -2.06522700692653
  H           1.51590294868875     -1.79862813401230      0.53629806858556
  H           0.15315217170861     -2.54896078736862      0.99179582140850
  H           0.95823042914498     -4.00673219570888     -0.66503495861814
  H           1.41751216206956     -2.61269280773388     -1.64353786457981
  H          -1.43786791168405     -3.43766508096930     -0.91080426474944
  H          -0.67799640845954     -3.67399112962679     -2.49642425713328
  H          -2.17118541135153     -1.61730754586919     -1.96638439739559
  H          -1.48560173002047     -0.55550016969109     -3.69242851682065
  H          -0.39281360122975     -1.93093083777854     -3.93527828044470
  H           0.77813975887476      0.25774643814958     -4.04869928500494
  H           1.41439181974614     -0.71508925208882     -2.71698643894935
  H          -0.62921207317163      1.38489257859988     -2.39164643336161
  H           0.92909450245062      1.52582603233224     -1.94478332597617
  N          -0.76140795503094      2.16217615631052      0.49030514550710
  N           0.05488919306976      2.91429728365736      0.05144827993158
  N           0.85500161992007      3.63675634235257     -0.37281252172155
  C           1.75992302577569      1.15099588613919      2.10293087074720
  C           3.18731465047230      0.76785278754295      2.46996756213779
  C           3.90734293227787      0.70812951772080      1.10176693224193
  C           2.75616826689950      0.70631211211968      0.07531197089360
  O           1.55014389205197      0.47224951471449      0.83599646257864
  H           1.65386573287542      2.23345610125894      1.95293647121809
  H           0.99508376150135      0.79810688885014      2.79537697321978
  H           3.19890711879333     -0.21242081965873      2.95722938150446
  H           3.64216266020442      1.49050530480971      3.15233631142753
  H           4.53046635467797     -0.18615617598108      1.01710784568167
  H           4.55011270883046      1.57821765872965      0.94527034550354
  H           2.83292957668596     -0.08946612238934     -0.67559977023037
  H           2.67724057323789      1.67945148017965     -0.42817634934379
  I          -3.42877042781205      0.78276570275062     -1.39551600689123
  N          -1.87790844212193     -1.39470272858647      2.12981612019700
  O          -2.29557942225339     -1.99490701480569      3.08719856168077
  O          -1.00936258209537     -0.44236854373787      2.22924979021853
  O          -2.24124834843990     -1.65288536290740      0.92560229172211
