32
Coordinates from ORCA-job orca E -4932.662355774787
  Tb  0.05340323041453     -0.29708698145779      0.27389437984671
  N   -1.94415710157395      1.26856924924752      0.15883963235887
  C   -3.15680368667409      0.75542700529206      0.36351323938952
  C   -4.26173662702073      1.53523150000597      0.65217246135621
  C   -4.08930972854103      2.90442285661856      0.74662763597874
  C   -2.83263054356844      3.44241626545972      0.52976519588567
  C   -1.77755423953558      2.59298887678346      0.22543733567472
  C   -0.40110817245037      3.09905051759921     -0.02343878815446
  C   -0.16153452841039      4.43202158866912     -0.32346367170597
  C   1.13954373384506      4.85545186202174     -0.53642396756491
  C   2.16582341521421      3.93526268329440     -0.44116436495195
  C   1.84582850565976      2.61914416276727     -0.15464726727991
  N   0.59368221404161      2.20125110235168      0.04319210374355
  H   -3.23554495631300     -0.32161169792728      0.29172765530695
  H   -5.22345721700199      1.07189326357354      0.81360457261813
  H   -4.92093507173990      3.54962264528787      0.99431784817009
  H   -2.67507059134663      4.50566433635715      0.62251122108863
  H   -0.98010151140123      5.12922950455127     -0.41188767413094
  H   1.34278026814347      5.88966911250717     -0.77801022159610
  H   3.19774016254834      4.21238269080497     -0.59623907643385
  H   2.61885693896936      1.86825112501309     -0.08846899363823
  Br  -0.49959047212523     -0.00381467995113      2.92463379573198
  S   4.95489054521702     -0.20216112409331     -0.72076094014596
  C   3.42379729652246     -0.42486758087797     -0.31809074878740
  N   2.28799441608678     -0.55376134976707     -0.01638979131412
  N   0.32644291747959     -2.70918607498896      0.98599931038037
  H   -0.36802224591867     -3.31096300139580      0.55836560537186
  H   0.22853943144352     -2.76844803912752      1.99361312973490
  H   1.24709577158936     -3.05522039196773      0.74029466042389
  S   -0.29874833739368      0.10129461319185     -2.74911522870914
  C   -1.15061828189009     -1.01112093794878     -1.91157229870959
  N   -1.61519553426979     -1.70510310189475     -1.08213674993819
