5
Coordinates from ORCA-job orca E -894.142877441261
  Dy  -0.01158414274207     -1.39206251221791     -0.07718831614063
  Li  1.39765949985879      1.11189476636999      0.86271705936481
  H   0.53479333024297     -3.14476343366044      0.68295667329878
  H   -1.19599111224330     -1.45719738872021     -1.69360190168031
  H   -0.03038757511639      0.23508856822859      1.29717648515734
