7
Coordinates from ORCA-job orca E -642.163150931801
  Cm  0.00000855265498     -0.00000959122190     -0.00003132270611
  H   -0.00000097048178      0.00000375842181      2.04267587440944
  H   -0.00000805297957      0.00001074904433     -2.04273134063980
  H   -0.00000195590272     -2.04271219436058      0.00001765878628
  H   -0.00000294153242      2.04269501647965      0.00002072757014
  H   -2.04269536570640      0.00000162358477      0.00002068966471
  H   2.04271073394792      0.00000063805191      0.00001771291534
