5
Coordinates from ORCA-job orca E -2316.057014264677
  Ce  0.13853084683248     -0.92876102375237      0.21435811893574
  Cl  2.01274693016435      0.67449525246362      0.10452446143879
  Cl  0.99862618686839     -3.15700746169520      0.83754881809865
  Cl  -0.96285661102156     -1.06391702953451     -1.99060239149083
  Cl  -1.49255735284365     -0.17184973748154      1.90623099301765
