44
Coordinates from ORCA-job orca E -2372.305276117548
  Nd  -0.35474845071709     -0.52958130801374     -0.52108595312144
  C   -0.99759676286991     -0.59751053026702      4.06639171849182
  C   -0.80670131976739     -1.20359634848350      2.71077276743748
  C   -0.81274455431434     -2.59037251967038      2.56251193844854
  C   -0.68199458298275     -3.25610899654820      1.33942373258919
  O   -0.51044776306214     -2.65326490592589      0.22555741115597
  C   -0.74503828800468     -4.74858902308898      1.27906590947009
  O   -0.65913279976777     -0.37542427966703      1.74190786781093
  H   -1.03929094008961     -1.34343108137963      4.85388787986992
  H   -1.92667662531796     -0.02577254374465      4.06691368461257
  H   -0.18840296831263      0.10470560122311      4.26663745354223
  H   -0.95306908865975     -3.18962933263660      3.44774094659490
  H   -0.87640325218312     -5.20056604824611      2.25706220916634
  H   0.16838984969119     -5.12687677165450      0.81954916480284
  H   -1.57150901792560     -5.03688695136279      0.62890399666462
  C   -3.38832023552033      2.52520241775155     -1.23976112574761
  C   -1.88813240073280      2.62583359484699     -1.13135054997415
  O   -1.35773301731481      1.67005132077101     -0.16373086262465
  H   -3.74582925038136      3.23297398617966     -1.98664111586979
  H   -3.87019783089747      2.76845680671951     -0.29201110666392
  H   -3.68656631676259      1.52496542946681     -1.54864779381897
  H   -1.55685690173162      3.61889315550151     -0.83171417139825
  H   -1.40232078566077      2.37722233301162     -2.07304335533969
  H   -1.66906277602351      1.88485133700857      0.72151965773437
  C   2.94087103813381      0.20459822265091      2.32123565399423
  O   3.54416555543324      0.36833956691935      1.02573294367343
  P   2.58119863835669      0.51446955890636     -0.23498183554185
  O   3.71992196572477      0.72079380597397     -1.31898731308107
  C   3.34718817340120      1.15640406960565     -2.64592692100321
  O   2.07044866929166     -1.05334533493413     -0.49389648241084
  C   2.97767567743563     -2.17981767247127     -0.61055481613648
  H   3.68610669411852      0.49974478567958      3.05160815352966
  H   2.66649198194955     -0.83892995486706      2.47618592715764
  H   2.05584313093337      0.83459208369881      2.42349449521815
  H   4.27366112982990      1.39647494505685     -3.15448809732467
  H   2.71589227922049      2.04219776209969     -2.59468339969061
  H   2.82407369505663      0.36175957323161     -3.17436255442233
  H   2.37127886689894     -3.07811376355884     -0.55742984432062
  H   3.69375802123989     -2.15221743585973      0.20646596801888
  H   3.49647143806824     -2.12421694222225     -1.56312916494246
  O   -1.92352576934649      0.79041069381185     -4.15523900367314
  S   -1.37117319275213     -0.28689547850208     -3.37958644745246
  O   0.04170506712348     -0.08128925891932     -2.89359934243157
  O   -2.14316698080873     -0.66300456809091     -2.14281822299425
