33
Coordinates from ORCA-job orca E -2702.003900260821
  Eu  0.87953065140612      0.04887002055629      0.38008459742390
  C   -2.25617016950498      0.04259593232159      1.74086820957919
  C   -1.29959750582011     -0.66574056904263      2.71440252311142
  O   -1.76696430642470     -1.09094231495287      3.77067974469251
  O   -0.08271247026661     -0.70621755168069      2.33524178149175
  N   -1.69690160806195      0.15282156999989      0.39426870270266
  H   -2.41504526460493      1.04656841928048      2.14148572648311
  H   -3.21732279635453     -0.47657127707417      1.76802548704044
  H   -2.06840873933620      0.96814948119871     -0.08222302993428
  H   -1.93237360630821     -0.66561304889820     -0.17250549548336
  C   -0.89294870310021      0.06242744869645     -4.31145162446413
  C   -0.92357508933648      0.08177529990274     -2.95813645605092
  N   0.09898904658492     -0.61111211177364     -2.19642927651750
  C   1.31804600937451     -0.60956498641111     -2.99289665031023
  C   1.23687321904864     -0.60527120032671     -4.34597971895167
  N   0.12730981452165     -0.37828667171677     -5.09664709654650
  H   -1.73128299360684      0.52861266963221     -4.83301831130690
  H   -1.69415911860728      0.59029280274218     -2.39783722941302
  H   2.25239354647526     -0.71059899337123     -2.45914792102042
  H   2.17252774193551     -0.71807706317067     -4.89575210857690
  S   3.48127310491694     -1.32841481063400      0.01052440957198
  C   4.83259124055731     -0.37932659149126      0.30734949899765
  N   5.82060245392958      0.20848652083633      0.47780434220091
  N   0.29676805780606      2.22163967542819     -0.53384219416262
  N   -0.73587320142527      2.77655178227861     -0.64251524929713
  N   -1.75750946370354      3.31319735652231     -0.73834495905026
  O   -1.78401787072523     -2.13172548429102     -1.38888134795890
  S   -0.34748638445918     -2.19959749055634     -1.63773512718891
  O   0.42194507091711     -2.19776522989391     -0.35755435458882
  O   0.06982831537302     -3.24729257094527     -2.53491558833334
  N   2.13177553018995      1.40468523466217      1.85564478088057
  N   2.46833694235296      2.14162815367623      2.70944359825801
  N   2.80425854625667      2.86491559849612      3.54329033672186
