50
Coordinates from ORCA-job orca E -2301.835498791213
  Gd  0.01484885396647      0.21198790666551     -0.33154641506847
  N   0.85418926777483      1.94457498444948      1.42853483042712
  C   1.70660347153397      1.45847070356636      2.52971996374324
  C   1.29746723482803      0.04836555009344      2.91392098624719
  N   1.38292866459406     -0.85776118642320      1.75653112102111
  C   2.76208657704732     -1.28493148160021      1.48276057025177
  C   2.88377657179813     -1.81010684114175      0.06783603734212
  N   2.41487197242209     -0.76838216903574     -0.86115446743628
  H   1.23450891792126      2.80181327317274      1.04326042684880
  H   -0.06720410859674      2.18406275527922      1.78587475935675
  H   1.64808847102702      2.10378008316478      3.40812569393779
  H   2.74061354676966      1.48338644414324      2.18632731845299
  H   0.26296454561445      0.04904075284839      3.25917092985701
  H   1.91904070738462     -0.29864039847249      3.74516852579700
  H   0.83244711238475     -1.68464842424836      1.98779850341010
  H   3.10118177866854     -2.03846334997702      2.19915006092692
  H   3.42446152990917     -0.42428460591904      1.59377613100227
  H   2.25316574604297     -2.69221120619138     -0.05497645091182
  H   3.91231757116831     -2.11874735735839     -0.12877516017177
  H   2.41144668397105     -1.09669382941453     -1.82150171245684
  H   3.06837975816747      0.01047767469391     -0.86713103992305
  N   -0.32812964886985     -2.32533465638005     -0.85838994334324
  C   -1.66533416391420     -2.62143404432635     -1.42143610933988
  C   -2.06424127768022     -1.54245479098389     -2.40637927208843
  N   -2.11478845985654     -0.25264975365683     -1.70075769876796
  H   0.38233747908664     -2.67725736483614     -1.49150620985119
  H   -0.23414023146376     -2.84720393255139      0.01258125447980
  H   -2.37030265651887     -2.65109901368805     -0.58945719250847
  H   -1.69074485379340     -3.59992221930113     -1.90256727318057
  H   -3.01739586425584     -1.80005742195820     -2.87219555075663
  H   -1.31978243337787     -1.45848241539343     -3.20078730125130
  H   -2.89489535646573     -0.24257548943050     -1.05139271766053
  H   -2.24202369533187      0.51003569274760     -2.35715116861624
  I   0.81664960759740      1.30591586103405     -3.01526149854424
  S   -1.38035430007820     -2.89458357742414      2.40477309378442
  C   -1.60628856564302     -1.40310995640178      1.81378594478472
  N   -1.69203678048737     -0.32461261026861      1.34563788512138
  C   -2.84937347082081      2.39943525023812      0.09889878994805
  C   -3.17908043239386      3.86980774220487      0.26252908850154
  C   -2.29868029228287      4.50333259527376     -0.81139532137501
  C   -1.02316634951057      3.69141533107961     -0.68531984043541
  O   -1.44430656550593      2.36005735990448     -0.27913237121220
  H   -3.43675242056113      1.96468663406101     -0.71387746752657
  H   -2.97180353651960      1.79516017427337      0.99259219845784
  H   -2.88967286176595      4.22058694275403      1.25432870615678
  H   -4.23958782848246      4.06783979275006      0.12644986540924
  H   -2.12289025694094      5.56566776887556     -0.66054912739165
  H   -2.74066401790342      4.36557927356945     -1.79887205561785
  H   -0.37922632389450      4.10246565984467      0.09728837503159
  H   -0.45610931676241      3.60340188969438     -1.60780769486207
