4
Coordinates from ORCA-job orca E -1476.298642630598
  Eu  0.09482943614950      0.12876739473728     -0.28980702955797
  C   -0.93723680766741     -1.68083365420184     -1.88533774512370
  Te  -1.33182778421795      2.77241794871830      0.44983792446081
  Cl  2.77072515573587     -0.39846168925374      0.28870685022086
