30
Coordinates from ORCA-job orca E -1734.814955376328
  Tm  -0.46787247565082      1.53799447858540      0.99683171260407
  C   3.09551818085146     -0.83833128585098      0.01508998021323
  C   2.11395322746185     -0.17986715739632      0.91187683600890
  C   2.22419570747356     -0.25403557346958      2.29698198002111
  C   1.35248386165830      0.34266903653897      3.20764480091962
  O   0.33312516491807      1.06091091253581      2.82543016288848
  C   1.53288139028195      0.19540432547406      4.67196183101583
  O   1.14467660844371      0.46722042748406      0.31855450628190
  H   3.87181440643232     -1.35910520237766      0.56518614430148
  H   3.54706253715325     -0.08549285626397     -0.63330281567007
  H   2.57103936264300     -1.54102757143420     -0.63448922949455
  H   3.04925521025233     -0.82010214048190      2.69887097641886
  H   2.40654588081309     -0.39617915152130      4.92316411363684
  H   0.64021271532118     -0.27202932614670      5.09204583046659
  H   1.61233105030401      1.18485348968166      5.12492292640319
  N   0.08540428632538      3.84597515358427      0.48358632324446
  H   0.33777425375521      4.38359017995196      1.31342468926447
  H   -0.62479524970162      4.40844784183762      0.01570935194297
  H   0.90554796128989      3.90748483262909     -0.12052823727767
  C   -4.53545448825283     -1.10446742434981     -0.54575896738331
  C   -3.30697284787138     -1.21494774086761     -1.18292304917487
  C   -2.24592321520046     -0.47787835026508     -0.70510657720166
  N   -2.35592239316162      0.35026541616506      0.35544988046526
  C   -3.55364271032304      0.44623651545871      0.96872634994946
  C   -4.65899389830740     -0.26053536470076      0.55007467724077
  H   -5.38646531127050     -1.67131547070575     -0.89745764836424
  H   -3.17065967322244     -1.86319697574187     -2.03571941186369
  H   -1.27038902202416     -0.54916737137752     -1.17378352194815
  H   -3.61941577448865      1.10814871234122      1.82475374942228
  H   -5.59691474590361     -0.15162235931692      1.07398263566832
