32
Coordinates from ORCA-job orca E -1466.060729490550
  Ce  -0.01143386645231      0.08130022174183      0.10705090746667
  N   -1.80670523334431      2.01351998672665     -0.89674082070692
  O   -2.57450031288889      2.82085408507583     -1.27568349355991
  O   -0.86983468621402      2.26744273813028     -0.04731724129061
  O   -1.80841411582071      0.78695540269464     -1.29540895208906
  N   1.23668503780892      1.06029207326851     -1.96699628388580
  C   1.61599440673348     -0.01988446193382     -2.90895282042887
  C   0.41287996796914     -0.90474345129597     -3.15420142734365
  N   -0.01433046808201     -1.50593284489762     -1.86859365035653
  H   0.68262266637705      1.75715701845214     -2.45626437953943
  H   2.07188099007224      1.54144141257321     -1.64613599866167
  H   2.42031407858863     -0.59459826400920     -2.44800035032198
  H   1.99198859198182      0.37925725892384     -3.85095983179086
  H   0.64521794646164     -1.66788349465384     -3.89652535532716
  H   -0.41940444176535     -0.31189822590378     -3.53386988975421
  H   0.58707838198149     -2.29259957093973     -1.63464832419247
  H   -0.94918580297241     -1.89664229890695     -1.94697327413756
  C   -3.53649463407829     -3.71727441519484      4.65411448181591
  C   -3.15179652433641     -2.42071882487876      4.97406466851969
  C   -2.44735515211391     -1.66674399994915      4.05438610316697
  C   -2.13343003027099     -2.22151567096248      2.81313022087128
  C   -2.51984116204783     -3.52290235584284      2.49105336156100
  C   -3.22266230866457     -4.26947831757349      3.41742840280101
  C   -1.39357126288600     -1.42873973500426      1.84294990618807
  O   -1.08466689770110     -1.87510002853794      0.68065499662273
  O   -1.01045214486609     -0.22725556789542      2.10482718957400
  H   -4.08693130029631     -4.30425318711741      5.37654806651166
  H   -3.40193997213586     -2.00303199176606      5.93857429198729
  H   -2.13801110696748     -0.65691510197750      4.28281844577379
  H   -2.26607063123339     -3.93298955342430      1.52410587064333
  H   -3.52761936235822     -5.27886075251337      3.18176357106436
  F   1.92858934952217     -0.22065808240804      0.50610160881888
