36
Coordinates from ORCA-job orca E -2292.010080998722
  Nd  0.38127991937426      0.63692620230782      0.49084026739461
  C   4.91798656129458      0.13262378549317      1.64957430801219
  C   3.43268525763526      0.14357658078280      1.91654754974464
  C   2.96970101524758     -0.24362426889128      3.18092511544850
  C   1.61579068783837     -0.25313898340619      3.55305555904765
  O   0.65983029832577      0.09126490461133      2.81175042087636
  C   1.24409875296550     -0.70912600961854      4.94339358661579
  O   2.70560952044269      0.50977209019815      0.95305103196578
  H   5.49604711291189     -0.20718915250848      2.50576657435491
  H   5.22975809295301      1.14013757671905      1.37392141675727
  H   5.11352722205606     -0.51314463551442      0.79367852306052
  H   3.69910773561876     -0.55128308618792      3.91480984125582
  H   2.11063962033473     -0.96443953851867      5.54877594280486
  H   0.59015883170953     -1.57724678977290      4.85778197822664
  H   0.67302504035831      0.08078627108285      5.43076794409419
  C   -1.26939470605880      1.28324432070198     -3.29208428383847
  C   0.14585060091035      0.95271615828158     -2.94286524031179
  O   0.49111660232939      0.98656808260760     -1.66490756771645
  H   -1.43022831028599      1.22549785967463     -4.36969434277066
  H   -1.52799305622804      2.29494754009250     -2.95258248467067
  H   -1.96051446580824      0.58679729339170     -2.80618366615380
  H   0.93608127385234      1.14804718510820     -3.66824167648640
  H   0.06895960743299     -1.12081193481957     -2.62699862682100
  S   -0.13326924793665      3.33907864666640      1.46724836753291
  C   -0.91495582308249      3.88706819920627      0.08530839034982
  N   -1.47871381230509      4.26883078783085     -0.85352586538135
  O   0.08159506595832     -1.63936726996524     -0.02045512717398
  S   -0.72444042673906     -2.41272758528596     -1.05624322186891
  O   0.05366440557736     -2.08879660973700     -2.43892061935298
  O   -2.03834794120750     -1.72065320311127     -1.18961386359592
  C   -3.11545800592697      1.33026840016500      0.18425344674787
  O   -2.06765357444868      0.38419492287620      0.37946801318388
  H   -4.08462325181448      0.84639799124276      0.31585605173654
  H   -3.05654985149790      1.78435067660707     -0.80469703989567
  H   -2.99638847427918      2.11311624944795      0.92857103577039
  H   -2.18668227750775     -0.39946265775874     -0.22183173894324
