28
Coordinates from ORCA-job orca E -2478.401279469971
  Ce  0.11538326603237      0.14803039851345      0.51267432855401
  N   -0.06679954130582     -0.01033875376044      3.38204701659641
  O   -0.12578646571662     -0.09574005473181      4.57237366525563
  O   0.96831930823311      0.43693452500111      2.77818176239647
  O   -1.02455152299548     -0.35826734691679      2.61834615059634
  O   2.48783269694606     -1.92941853505380     -1.21228419902140
  S   1.46935096077992     -2.98186147920425     -0.23928645446806
  O   0.31614689170972     -2.03511640363748      0.18022113230405
  O   0.97916449739163     -3.87686970876903     -1.26519206013989
  C   -1.35674953542752      2.86855791383978     -0.63717938526861
  O   -0.48724822044017      2.09298473337973      0.05039991907760
  C   -0.15209179770513     -0.16989782844354     -4.81590470859347
  C   0.32630474853157      0.96770955652747     -4.18579235926547
  C   0.33587710442013      1.00376682821375     -2.80559175150633
  N   -0.09965777164218     -0.01414385390683     -2.05672916655282
  C   -0.56072296381587     -1.10842854505002     -2.66754962816533
  C   -0.60155079674810     -1.22619259248868     -4.04424113653570
  H   -0.17223515654518     -0.23106932300034     -5.89594378550822
  H   0.68720161770802      1.81719386393973     -4.74632500987048
  H   0.69803410358930      1.87341162615198     -2.27339630453504
  H   -0.89411320624194     -1.91489189803765     -2.03135797814197
  H   -0.97866840345751     -2.13483741295197     -4.48897330903652
  O   -3.28475201853812     -0.11905137482415     -1.45100504664072
  S   -2.75130761786978      0.49225786481194     -0.25521729262269
  O   -2.44699800260462      2.28756163064664     -0.90970120724571
  O   -3.67368760041588      0.76173631362637      0.81948888153309
  C   2.84248842745581     -0.65161875751974     -1.02578319043393
  O   2.19851699867232     -0.06570138635543     -0.06397888276096
