4
Coordinates from ORCA-job orca E -377.208933417934
  Ac  -0.06094827067020     -0.09232080493881      0.16423290134926
  H   -0.72714849495737     -1.04674633731255     -1.68175613648294
  H   -0.73298467440066      1.98068292510594      0.03707335352939
  H   2.11757144002823     -0.01972578285459      0.04384988160429
