20
Coordinates from ORCA-job orca E -4024.221252353280
  Tb  -0.44454121325299      0.65521886788763      0.42990245746597
  C   3.93512715846650     -0.46023263528550      0.71624097787363
  C   2.57013013691977     -0.15686585142754      1.25241434055324
  C   2.35878848705658     -0.06678946215959      2.62992404499999
  C   1.11319042028716      0.17775615594388      3.21581058163121
  O   0.03573878672924      0.33904358512599      2.55327603624219
  C   0.98288031671854      0.26559896600257      4.70512394415664
  O   1.65317830580340      0.00646614567980      0.37878200897158
  H   4.67618097290500     -0.56393127312852      1.50325504585385
  H   4.22969704183584      0.33707909552607      0.03409237098880
  H   3.88618846508571     -1.38095808214241      0.13453352557512
  H   3.20618584615660     -0.20440805674545      3.28233530935081
  H   1.92885794212239      0.10966497905574      5.21505203097492
  H   0.25465955263304     -0.47262204388001      5.04040764794018
  H   0.58625079455232      1.24858719922228      4.96038595379372
  Br  -0.65823303867902      3.26091715596167     -0.01124808674005
  N   -2.22996688820237     -1.18370803552711     -0.64971235788234
  O   -1.18607169291752     -0.77762683571727     -1.27564678345059
  O   -2.39622421541759     -0.64680276243390      0.50372705432473
  O   -2.97511717880268     -1.99238711195829     -1.09695610262371
