37
Coordinates from ORCA-job orca E -1131.399529816440
  Nd  0.24811213617776     -1.12981127259105      0.38586900835065
  N   -1.40481085271783     -0.33881917332080     -1.61083986137171
  C   -2.49680403301663      0.70931673109056     -1.57086993227118
  C   -2.11778696422288      2.08156701329099     -2.20589884391629
  N   -1.96152319006825      3.16230985084206     -1.24760906720384
  C   -0.76939509178754      3.50765600422764     -0.51791469026127
  C   0.20651640986754      2.36607536199310     -0.25833566633288
  N   -0.19372380110157      1.42696111428133      0.84753616914281
  H   -0.88736660698599     -0.19862632978804     -2.48105258215878
  H   -1.90639939696589     -1.20727428929525     -1.81678586574161
  H   -2.84635872142099      0.83512961552035     -0.54695151735679
  H   -3.34853061358632      0.33900391099745     -2.13835814983680
  H   -2.91518782390785      2.38275055745366     -2.88335524003007
  H   -1.19543006250538      2.01338295294577     -2.78990451990248
  H   -2.72806518695685      3.83990550191502     -1.19134968114634
  H   -1.06410218492373      4.04306294569304      0.39106538901270
  H   -0.26614123454352      4.28078220472503     -1.13408746121740
  H   1.16239870150293      2.81513476972100      0.00533789810116
  H   0.37416129421099      1.80465531131000     -1.17916738343352
  H   -1.19238404609824      1.52324518576410      1.03174584514582
  H   0.22764998004057      1.77091799253769      1.71213877615313
  N   2.38945524213110     -1.36013908620881      1.68475089256944
  C   3.14347518982917     -2.56042399105365      1.15301870186183
  C   3.22663845191827     -2.49214566592486     -0.35405160361253
  N   1.83678365963842     -2.54791817739335     -0.95523606828208
  H   3.01992119512452     -0.55786655813596      1.61303662544423
  H   2.29471655473640     -1.48097849199084      2.69610822675540
  H   2.62413897030152     -3.46311252458030      1.48195606227906
  H   4.14298521877055     -2.59626471223022      1.58518988110311
  H   3.83149251183117     -3.31335107588599     -0.73658778058445
  H   3.69931275907686     -1.56509480033788     -0.68265650120925
  H   1.54860278822992     -3.53050359705875     -0.94246202151495
  H   1.93194963029730     -2.35895777016363     -1.95527252623124
  N   -1.13772443661837     -2.74518921944636      1.77383005509495
  H   -1.65552786987351     -2.33377746561303      2.55641695408300
  H   -0.58528567379840     -3.48193567733763      2.22364453579783
  H   -1.85586290258519     -3.27276714595231      1.26810194272045
