4
Coordinates from ORCA-job orca E -53.898023051601
  La  -0.70891906314356     -0.64083679722283      1.31705594685804
  Li  -0.38984577947963     -0.63834647750607     -2.03797295051937
  Li  -0.39393650553309      1.69075327730517     -0.47782328132289
  Li  2.08919134815628      0.41031999742373     -0.23785971501579
