31
Coordinates from ORCA-job orca E -1804.717682726047
  Ce  0.22472322480989      0.23461298847239     -0.13074989866795
  C   0.66024088261528     -1.34352236039666      2.83608976431263
  C   -0.83591436194213     -1.16293433123700      2.57165065166791
  O   -1.65950142690502     -1.47468555602508      3.38991043098878
  O   -1.09122367387012     -0.60374690585245      1.40312323962659
  N   1.42370593533002     -1.31203899943334      1.58174454779828
  H   0.81114103771141     -2.25142719305662      3.41732534491043
  H   0.96937169768882     -0.49903077927461      3.45260361326841
  H   1.52574206485801     -2.23665510391011      1.18177999492056
  H   2.35214637334754     -0.93252766283334      1.71957444140197
  C   2.63542473955483     -2.55852108513444     -2.93275057240213
  C   1.41474490436540     -1.80371523834363     -2.49564481745824
  C   0.33316233533753     -1.66357791669140     -3.36662706131956
  C   -0.84978955939249     -1.00293760472582     -3.02545971195353
  O   -1.04293993889697     -0.43607637612319     -1.90249243321519
  C   -1.98833982510278     -0.93629917279331     -3.99691242515455
  O   1.44867186623411     -1.33294002420560     -1.31196545744784
  H   2.54457725443495     -2.94623597327347     -3.94314423577497
  H   2.81108306067442     -3.38160577471456     -2.24007228221402
  H   3.49686173522658     -1.89338034197551     -2.87254973204035
  H   0.40335214715741     -2.11222457246385     -4.34446676603231
  H   -1.77025346020349     -1.45244101729700     -4.92721940858166
  H   -2.21235267274139      0.11076585384296     -4.20040447165682
  H   -2.87257368619505     -1.37103355268241     -3.53122029742260
  O   1.11232218810502      1.90824818881236     -1.22828099892291
  S   1.86691995949450      2.65227055814575     -0.02959224135814
  O   0.96539367140356      3.73206776153252      0.40118468253588
  O   1.67942854155701      1.46618378212570      1.01811452914414
  O   -1.20352221827356      2.17976047556194      0.44685480306508
  H   -0.58965626726914      2.95611013145717      0.50083659599297
  H   -1.72754652911423      2.14263780249275      1.25106017198928
