4
Coordinates from ORCA-job orca E -1458.368275882955
  Yb  0.13938240859506      0.20832747545573     -0.33560336953630
  F   -0.75736196863848     -1.11713089739969     -1.48740290123957
  F   -0.79721338439625      1.86065240257931      0.19765071363872
  F   2.01168294443968     -0.12995898063536      0.18875555713717
