29
Coordinates from ORCA-job orca E -2371.246227465742
  Gd  -0.46880261725115     -0.25781384330610      0.19764383685791
  N   -0.04308429052181      1.91788860646227     -0.82500271376274
  C   1.20081921510910      2.42915122504062     -0.17798589834967
  C   2.31864955263757      1.39498115765621     -0.26914972497981
  N   1.94730874112480      0.05663551684669      0.29429674509441
  C   2.38402178591847     -0.21408659590556      1.69948719181634
  C   1.48264531445945      0.44061323481207      2.73608762931569
  N   0.07394681720094     -0.03790235423507      2.58018913757072
  H   -0.79740800370256      2.59278712690341     -0.69023702758305
  H   0.08906121724287      1.87859357218204     -1.83787971878695
  H   1.53871590225096      3.34462577835030     -0.66479846200126
  H   0.96024286678511      2.69050717331292      0.85261866963197
  H   2.59368640706128      1.24417440508470     -1.31357703104249
  H   3.20180837020913      1.77363467780869      0.24735728559301
  H   2.39124186483050     -0.64868898111892     -0.29191090504467
  H   2.39200846025919     -1.29749723866889      1.83579591118924
  H   3.40904297466130      0.13553167707335      1.83503757760173
  H   1.85806433107581      0.19634597232903      3.72975298766104
  H   1.48878336107766      1.52548801952778      2.65175769117353
  H   -0.02282706989953     -0.94170840628309      3.04812351408931
  H   -0.55376270787949      0.58097143573624      3.09505554165484
  F   -2.64568481241588      0.94176858142292      0.96940768149747
  P   -3.76386281287242     -0.14835168262292      0.44390207051501
  F   -2.94122157431668     -1.33819283862054      1.12933685033502
  F   -2.94281002465036     -0.30933904047678     -0.93789424066748
  F   -1.82779185807528     -3.48394565935021     -1.18684636391170
  P   -0.29135874332797     -3.41442393837810     -1.22296897424458
  F   -0.11965287801720     -2.79212120674177      0.31072184349031
  F   -0.21727978897390     -1.82892637484135     -1.74622110471328
