29
Coordinates from ORCA-job orca E -1842.216331891707
  Ho  -0.01533550491146      1.28365339344932      0.10009086147890
  C   3.64635804525686      0.33250694157122      0.61838225494090
  P   2.24779934526675     -0.37934781066753     -0.29149150698335
  C   1.91930269822166     -1.97220332726437      0.51259499266691
  C   2.87358561760999     -0.76934609808593     -1.94730824326625
  H   4.48124117894850     -0.36895816795318      0.59495177082203
  H   3.36786128822355      0.51154183338854      1.65635947948570
  H   3.96977276934724      1.26863784375035      0.16458939753774
  H   2.82946115368786     -2.57317091092362      0.50205747786689
  H   1.13751122745863     -2.52027466603679     -0.01216335688586
  H   1.61896297188927     -1.81528003553757      1.54846931469676
  H   3.74223685846348     -1.42209004962154     -1.85581637963762
  H   3.17595542305654      0.13806577902265     -2.46810183684425
  H   2.11535128248209     -1.28182130598563     -2.53752076762947
  C   0.41492264921661      1.07339501132397      2.31418564540377
  N   0.72604494429993      0.89388051839528      3.41368474039422
  O   0.43983977398496      3.53757645993603      0.28994924181546
  H   0.70390911753015      3.86797856801336      1.16407692747429
  H   0.40171231890287      4.31150883734802     -0.29013997974293
  C   -3.91404945086976     -0.82724342627169      1.06971083850250
  C   -2.68746565590428     -0.17884544561032      1.09635615638309
  N   -2.11052136179986      0.23818356311738     -0.04533164912991
  C   -2.76692083943962      0.00197555343527     -1.19603837065099
  C   -3.98920025946678     -0.64682078833081     -1.19441462534453
  N   -4.55714616183970     -1.05880553515103     -0.06644929195942
  H   -4.37808851735465     -1.16262520789102      1.98798405097031
  H   -2.16836820393295      0.00476509055802      2.02955831825406
  H   -2.31684688827792      0.33322936300730     -2.12463273389524
  H   -4.51658582004996     -0.83556598098569     -2.12029272672373
