31
Coordinates from ORCA-job orca E -1266.535278456317
  La  -0.02774909896924      1.20051153578758      0.26619648495585
  N   0.71240310489429      0.70577643361934      2.74925358695567
  C   -0.15681897258724      0.99513325705659      3.72477771243223
  C   0.14965041648147      0.84463902420676      5.06651922984690
  C   1.40807851177891      0.38822011991289      5.40554970177528
  C   2.31703368147142      0.09704939366122      4.39851839378820
  C   1.94100237560656      0.26228240892146      3.07622897435814
  C   2.87900637949323     -0.01443306725977      1.94843994786611
  C   4.13535183427559     -0.57097162410877      2.14765510838710
  C   4.97226698400998     -0.77778373275635      1.06417248780025
  C   4.54037694718900     -0.42747949788258     -0.20379764054411
  C   3.27426229688583      0.10827389095600     -0.32478503418380
  N   2.45725386073311      0.31074686992336      0.71384053111976
  H   -1.11762228127166      1.37819536997187      3.40543540347748
  H   -0.58583315027752      1.09252298182309      5.81677961275410
  H   1.69128382266103      0.26540123413013      6.44148443010389
  H   3.30736711468744     -0.24062439575567      4.65813222312231
  H   4.46744462947256     -0.84774602842652      3.13510020214588
  H   5.95275154201731     -1.20809847037914      1.21189225229570
  H   5.16117339170378     -0.56508453727990     -1.07599181148097
  H   2.89960701905972      0.39302327268176     -1.30294110972774
  C   -2.25431034466751     -1.69232889769645     -0.89219814983613
  O   -1.66750837438113     -0.39135529835682     -0.71291622911433
  H   -3.11911433476910     -1.80407695156381     -0.24265416809939
  H   -1.50300256819804     -2.43055811628376     -0.62876247323200
  H   -2.54569099083060     -1.82693100008829     -1.93078661562720
  H   -2.30327058549151      0.32755565507431     -0.92025174622695
  O   -1.77101941135191      2.25322606364752      1.48924467803349
  S   -1.91149389129351      3.19602687273503      0.23982405408928
  O   -0.38420032296071      3.48521798968413     -0.01229262997278
  O   -2.17177958537181      2.16396924404477     -0.86596740726260
