5
Coordinates from ORCA-job orca E -11531.713752796282
  Lu  0.03401149697483     -1.12166129005077      0.52455197878078
  Br  1.72061552803667      0.65121713298073     -0.59000059531894
  Br  1.02593113952459     -3.40509789771396      1.00805514047417
  Br  -0.45845845535661     -0.59369704104649     -2.06458517322173
  Br  -1.62760970917948     -0.17780090416949      2.19403864928571
