43
Coordinates from ORCA-job orca E -1431.546530375345
  Ce  -0.17015366806057      0.44223369204835      0.37059878402239
  O   -0.82681613209986      1.43172210495470     -1.98494425246785
  H   -1.73872832741861      1.13518729421137     -1.84014343118203
  H   -0.45013577501303      0.79884002240960     -2.60569584196202
  C   0.54456413896914     -2.55394161893106     -1.44726360899421
  O   -0.18388897850082     -1.33355409208755     -1.58715768096004
  H   0.26131032780838     -3.26285140376287     -2.22547911634738
  H   0.37985059232607     -2.99255738003067     -0.46319242528010
  H   1.59751356410605     -2.30743628578879     -1.55278843885472
  H   -1.12166069324428     -1.45957289656861     -1.36771407579519
  C   -3.36230713525460      0.19193462380532      1.79424276070264
  C   -3.28341785797268     -0.58768492991985      0.49009234565637
  O   -2.18156863042196     -0.18366146164036     -0.28532896889892
  H   -4.23292007527416     -0.10336800402419      2.38083546323784
  H   -3.42784475222852      1.26108838449329      1.58710119301172
  H   -2.47437423762001      0.00292172396409      2.40615247054884
  H   -4.20557322279017     -0.43693265867551     -0.08149380967467
  H   -3.21344728820878     -1.66020102885217      0.71105837792950
  O   0.15198387680616      1.55509481707255      2.60302041319308
  H   -0.02109770979911      1.20501920612954      3.48229675670250
  C   0.32851517900423     -2.17792734454196      2.56690100285462
  O   0.01873529849704     -1.23936060526856      1.57949800236183
  H   1.00251190138386     -1.75207835679960      3.31628806943916
  H   0.82386680559716     -3.05163802916980      2.13230353155097
  H   -0.57699345446138     -2.52218262778166      3.07551125676638
  C   -0.19598951623721      4.00757748925187      2.86577681667121
  C   -0.75538506007809      2.76550183003124      2.27343140514769
  N   -0.80795764072492      2.73964734106039      0.86731863413440
  C   -0.04471463728780      3.66544746934855      0.22162455495819
  C   0.60221245269659      4.68230161138903      0.84099624813311
  N   0.47145845474108      4.87623099839502      2.20200741676772
  H   -0.35226513003036      4.17874780073314      3.92850910897360
  H   -1.70323440505402      2.47697077460144      2.73766510417555
  H   -0.00960280918869      3.56548100635039     -0.85743240329126
  H   1.16674843189528      5.41950782773336      0.29117622126925
  C   3.42264893936619      0.20743142632602     -1.96447398623757
  C   2.86693885384748      1.25366676480843     -1.01662314251699
  O   1.71100922888397      0.78485695194713     -0.37062088031572
  H   4.31482901522425      0.57946226018577     -2.46937956733709
  H   2.68254463335069     -0.05295495499327     -2.72255195060873
  H   3.68968598562538     -0.69680132602144     -1.41673978599406
  H   2.62473299777929      2.17111187482698     -1.56259422754222
  H   3.61241645906137      1.51451970878012     -0.26048834394791
