4
Coordinates from ORCA-job orca E -814.645949515022
  Eu  0.70887377360654     -0.39893170767548      0.54224123303183
  Be  -1.39716979530462     -0.38576653409361     -1.67151133602636
  Be  -1.16298624716257      1.67927222476517     -0.65173965276490
  O   2.44777226886065     -0.07268398299607      0.34440975575943
