42
Coordinates from ORCA-job orca E -1559.491424154854
  Sm  0.06650230318497     -0.20498568214845     -0.48756147572262
  C   -4.70666740414305      4.52381663400389      1.01625422473837
  C   -5.08770095133986      3.19838088162313      0.83652417741716
  C   -4.13618470968091      2.24788716119339      0.52098182289209
  C   -2.79898095868511      2.63208764126544      0.38527748683684
  C   -2.41789674528646      3.96448076496290      0.56771324497422
  C   -3.37653969275094      4.90785745381211      0.88347006096152
  C   -1.79618125287117      1.63508082128209      0.05587367966291
  O   -0.55109536293180      1.94342522214540     -0.08370085023519
  O   -2.10015576599763      0.39193436763506     -0.09980538430806
  H   -5.45435370813962      5.26536198158782      1.26231524204188
  H   -6.12468245832858      2.91391594792289      0.94206314014442
  H   -4.41499987353542      1.21395153491020      0.37581269931646
  H   -1.37956693227815      4.24498829856381      0.46262587179512
  H   -3.09458001356599      5.94096600584919      1.02670397449350
  C   -0.65857446495018     -0.96599540494418      4.09231626535537
  C   -0.66346980753851     -0.06842057827285      2.88537278870242
  O   0.24364384394597     -0.61329650199714      1.83721328755424
  H   -1.32449178264935     -0.54980603767643      4.84713154151177
  H   0.33486863514312     -1.02678677834698      4.54023696782465
  H   -1.00903544915652     -1.96718759747229      3.84768967149686
  H   -0.31622119199680      0.93780201543972      3.10959456314818
  H   -1.63890314027807     -0.02162703368938      2.40905909941853
  H   1.01064080210041     -0.98582001591707      2.28723911380962
  C   1.41560177592002      1.55648331885991     -4.59911973037959
  C   1.96995905890895      0.91169778665103     -3.35636277626257
  O   1.04000664456080      1.06730413605267     -2.22522784120595
  H   2.12000403669762      1.42243733064598     -5.41896683475474
  H   1.28058397650006      2.62952112192996     -4.45957137881588
  H   0.46507470095398      1.11273477752558     -4.89044583254294
  H   2.92113908385955      1.34700716428012     -3.05623928279167
  H   2.09230656035752     -0.16359640744774     -3.47073352098860
  H   0.78611447433186      1.99819306562471     -2.14863819210326
  N   -1.29825971743774     -1.83288855968715     -1.88621148407896
  H   -2.25595103488817     -1.52990834480677     -1.70985722118456
  H   -1.27272690761424     -2.82114334616936     -1.64526996122056
  H   -1.18296605384723     -1.80327988457224     -2.89679062445677
  C   3.27760860592172     -2.25579425626320     -0.72473461592578
  O   2.11792892157594     -1.55639674304211     -0.62227311540055
  H   3.41264422010131     -2.73975316656311     -1.69071198392475
  H   3.42416056471321     -2.91771265837067      0.13856931215380
  H   4.08889717111464     -1.50031643638015     -0.59291612994691
