6
Coordinates from ORCA-job orca E -479.538297018427
  U   0.04298436307447      0.05119315828850     -0.00265365185492
  H   0.23381838404965      0.42788366538933      1.94060221939086
  H   0.21393077395033      0.40305956740035     -1.95211504899323
  H   -0.96329577303492     -1.63244208119531      0.01541281436966
  H   1.91444022318790     -0.62107291640323      0.00183544680399
  H   -1.44186797122743      1.37137860652036     -0.00307177971636
