6
Coordinates from ORCA-job orca E -964.518896580443
  Np  0.66410247629769      1.30679855059320     -0.41338179614848
  Li  1.35595263863771     -1.26776274317259      0.98385490400769
  Be  0.70831146934791     -1.18376495718855     -1.45749219327592
  Sr  -2.00984256629404     -1.30889941793097     -0.43980627393750
  F   1.61725344307562      0.48581291580519      1.33227997187520
  I   -2.33576746106489      1.96781565189373     -0.00544461252098
