5
Coordinates from ORCA-job orca E -604.458571712466
  Am  0.08445859314800     -1.18479149816089      0.82017341206117
  Li  1.65007857858381      0.77621991759935     -1.01696105121448
  H   0.37217734552698     -3.18537344282694      0.78816991103629
  H   0.30055573353336     -0.31672085992280     -1.14465289345952
  H   -1.71278025079214     -0.73637411668871      1.62533062157655
