5
Coordinates from ORCA-job orca E -5623.934908484167
  Pa  -1.30893087788810     -1.66637805267809      0.19202937930251
  Ga  1.83823919403040      0.12256127251665      0.08963051529328
  Se  1.04540437595616     -2.54342902656433      0.94296009339437
  Cl  -0.48840829025320     -0.55373035775262     -1.87863779828794
  S   -0.39181440184526     -0.00606383552160      1.72607781029777
