5
Coordinates from ORCA-job orca E -748.972752569703
  Cf  -0.54561939794261     -0.78725628723632      0.12010072248386
  Li  2.67182092004489      0.10548563555555      0.27288901265301
  Li  1.89380905916282     -2.94855869289906      0.86754677135526
  H   -1.43692192535882     -0.81487508289949     -1.66066498830702
  H   -1.88859865590628     -0.20183557252067      1.47218848181489
