22
Coordinates from ORCA-job orca E -1998.524909206842
  Ho  0.42201415614921     -0.08131807198313     -0.21546478008527
  N   1.01612207884147      1.86174393744451      1.65188967056319
  O   1.26303253855161      2.70062562922713      2.45857944780422
  O   0.29418906174570      2.09051580932702      0.61397547140035
  O   1.43875466913946      0.66042183343923      1.74270274990216
  N   -0.32907224848442     -2.23680341124525      1.37006985947067
  O   -0.63815899466876     -3.14256771871897      2.07933260308784
  O   0.80455509810614     -2.18167282295587      0.77487045221533
  O   -1.10354715507308     -1.24865833317851      1.13105939748615
  N   2.10674840559356      0.60197916886941     -2.31937285592534
  O   2.84159225303369      0.87343921585324     -3.21770961270936
  O   0.84343643545886      0.80139582135720     -2.37503463665889
  O   2.51536219762045      0.07831770785320     -1.22632630629447
  C   -3.92432068306412      2.14681615376236     -1.31629341456891
  C   -2.71522552075919      1.36269371637447     -1.13648300464892
  N   -1.76042274921960      0.75264005622983     -0.98755117847150
  H   -3.85408334310439      3.05085028895145     -0.71518799182404
  H   -4.78647726011879      1.56548368722401     -0.99791344336332
  H   -4.03181474450365      2.41681885273827     -2.36424582596359
  O   0.01453080927844     -1.84917879859450     -1.84911547784919
  H   0.36651800209704     -2.72483695973283     -1.66323519762732
  H   0.08316699338041     -1.68620576224229     -2.79374592593969
