39
Coordinates from ORCA-job orca E -2370.387606603128
  Sm  0.03761549605529      0.43493653961602      0.74417986160982
  C   -3.45133686616479      6.51555913731419     -0.06033169227287
  C   -3.05782790147518      6.09278617280848      1.19423864615342
  C   -2.34485085241436      4.84820783212494      1.36562129887632
  C   -2.04191094040245      4.04888323485932      0.27202188610509
  C   -2.43530480330890      4.47254962995420     -0.98480325336485
  C   -3.14805408706146      5.71919112581306     -1.15051267478349
  C   -1.30215507557106      2.76430684853141      0.45233614379545
  O   -0.93640390615536      2.39802398120363      1.60664111891076
  O   -1.03271587158977      2.03756788463354     -0.55712254855410
  H   -3.98460880644311      7.44702358756288     -0.18827432670597
  H   -3.27664334848088      6.68728054666350      2.07213510475123
  H   -2.04627495098683      4.54341263995184      2.36084118057087
  H   -2.21055889443253      3.87302722574040     -1.85765449537669
  H   -3.44020797534430      6.01721317951788     -2.14948279348553
  F   2.04174425354771     -1.41494321631308      3.61675542717656
  P   0.81462990598368     -0.56510882261760      4.01902040360597
  F   -0.16619128320883     -1.10170886094925      2.79388160311618
  F   1.18036286580466      0.72486735547281      3.08548256746615
  C   4.19764302505684     -1.56844106427043      0.54180771624146
  P   3.43916402842584     -0.36952744975854     -0.53366631642802
  O   1.99690766828775     -0.03593466984135     -0.00561363590116
  C   3.32321648259210     -1.03309467119472     -2.18080477093879
  C   4.41997785862827      1.11550757672522     -0.55407603793226
  H   5.19455386796523     -1.80869642106194      0.16914429814694
  H   3.60691932708333     -2.48364161101297      0.56469592483565
  H   4.29312730945899     -1.16386958297251      1.54879723845394
  H   4.32446835657096     -1.26235676772785     -2.54873257404261
  H   2.86574950304928     -0.30448988280667     -2.84927264923263
  H   2.73721210374100     -1.95161478953412     -2.17806402880744
  H   5.42305188085798      0.88028120515637     -0.91296340424019
  H   4.49885198689209      1.52947301856728      0.45069459331673
  H   3.97532501365076      1.85149639890216     -1.22300751800835
  C   -2.39640561390448     -1.24045088188394     -1.04800629187468
  O   -1.54385306970085     -1.21110779852625      0.15553267259526
  H   -3.43624775298568     -1.27652385451029     -0.73988817535031
  H   -2.13272560925959     -2.10602935102633     -1.64684862141993
  H   -2.19753265547030     -0.32344968082313     -1.59403893020877
  H   -1.72731066929120     -2.00440574428939      0.67453705320078
