6
Coordinates from ORCA-job orca E -4432.480149965928
  Eu  -0.47391287130208      0.83517535034037     -1.27837923562208
  K   0.27337327181620     -0.56367964956283      3.28469209217787
  O   0.25919693166701      0.08798411548350     -2.61277697293108
  S   -0.45377409015647     -1.41730427039273      0.39466937303891
  Br  1.66257610356736     -0.68465681901197      0.28331056717202
  O   -1.26744934559203      1.74248127314367     -0.07150582383564
