17
Coordinates from ORCA-job orca E -2054.708622696570
  Lu  -0.21938091414912      1.20507728392338      0.78031574451917
  C   4.13113707272881     -0.25297944017561      0.89583580342302
  C   2.87377927022714      0.21884522686594      1.24297263494478
  N   1.94760121609404      0.42705740657255      0.30249026150884
  C   2.27862730138154      0.16729029517791     -0.96665215297050
  C   3.53835673454586     -0.30513768908794     -1.28679880275862
  N   4.46682975242987     -0.51684058025037     -0.35990036438362
  H   4.87913215671138     -0.42002732382122      1.65903261793790
  H   2.60016932382219      0.42960463430817      2.26863637339559
  H   1.52877958522620      0.34186963107008     -1.72744109506629
  H   3.80090171671541     -0.51636352274034     -2.31451708978286
  N   -1.32175058888016     -0.37319288070865      0.02591030976410
  N   -2.01119880941635     -1.25489427704245     -0.42507561047090
  N   -2.64996097225138     -2.08059026485294     -0.84428928419368
  C   0.22718399887094      1.17848816737636      3.05862416261028
  N   0.74612846517121      1.06365149103844      4.08578978493759
  I   -0.24563530922763      3.61404184234668     -0.62183329341482
