5
Coordinates from ORCA-job orca E -391.572475461105
  Ac  -0.62608891909912     -0.75022936425821      0.06858066440019
  Li  2.85068006459962      0.04591157956303      0.37213430707899
  Li  2.05994834714910     -2.95369187813787      0.92966924667374
  H   -1.55170729855593     -0.89972282885229     -1.92912496342422
  H   -2.03834219409367     -0.08930750831466      1.63080074527129
