4
Coordinates from ORCA-job orca E -1070.634161318159
  Md  2.02187976230333      0.30509733811612      1.28362924126789
  B   -0.51590511796831      0.17560485455793     -0.96669432630547
  F   -1.51599903769337      0.14304642532362     -1.81195994688613
  N   0.46117331294572      0.20478818204320     -0.14205480044350
