16
Coordinates from ORCA-job orca E -1956.695602745321
  Er  0.59231599364385      0.76425287931155     -0.06630351445140
  Cl  -0.18437978708817      3.00171700055909      0.85180080970662
  O   0.40977567144463     -1.62319133381309     -0.53695984259557
  H   0.46144427531131     -1.37567501817696     -1.47984173481938
  H   1.29248138892016     -1.93561054570518     -0.30505077597692
  F   2.34876152145708      0.09548102042410      0.69608113367107
  C   -2.12351962441638      0.47692319047326     -0.45879102421869
  O   -3.22812438859974      0.44850227395219     -0.64183395325750
  C   0.35598220055060     -0.77904580428092      2.95112793355944
  O   -0.33725983507088      0.11758506860599      2.06610018316034
  H   -0.15698866256598     -0.82812331136180      3.90945677955273
  H   1.39062863984212     -0.46689400958462      3.07785144484443
  H   0.33191772115014     -1.75804344090079      2.48195008443474
  H   -0.46118388217495      0.97926988404134      2.48437430147713
  O   0.56822604176985      0.51963193813378     -2.12740964939513
  H   0.54562272582634      0.85832020832208     -3.01715217569194
