42
Coordinates from ORCA-job orca E -2542.186769343847
  Ce  -0.00354153125925     -0.32345242381608     -0.24651128177639
  O   -0.49282847346673      1.69873842793778     -1.66133663729771
  S   -0.93703621560492      2.60088560191498     -0.54615117400044
  O   -2.56249215118629      2.24138642945541     -0.38801032127185
  O   -0.33460901183699      2.00281419357844      0.69304666275343
  C   0.63256977286788     -3.21379599241345     -3.76042123354887
  C   0.53393545961561     -2.61772247320075     -2.38569037384953
  N   0.23178796944213     -1.43327247781784     -2.11252860970302
  H   -0.02743830786576     -4.07721080553918     -3.83692593084437
  H   1.64994336305921     -3.56145212396580     -3.94006796574793
  H   0.35418839567926     -2.47093320015226     -4.50144602093584
  C   -4.43743243389099      0.85542342296634     -0.06689322478354
  C   -2.94373644772891      0.91721466339694     -0.19355644073835
  N   -2.15260000467030     -0.04826994790350     -0.13324574818474
  H   -4.76146373344906      1.46393633809000      0.77744209845543
  H   -4.74435588944834     -0.17562034800537      0.07752720490478
  H   -4.90074178800309      1.26070514023702     -0.96619662823421
  C   -4.50892739232404     -0.09673203386412      3.59275202083902
  C   -3.75537821995576     -1.12874428813999      3.05186722157389
  C   -2.38987451180147     -0.97568310891153      2.87882255191581
  C   -1.77847760845845      0.20907570477774      3.27631923273028
  C   -2.53531744096381      1.25032723928897      3.80814740546813
  C   -3.90299865562856      1.09770583157072      3.96100620858297
  C   -0.31325847373471      0.33512373016499      3.08709075375845
  O   0.29958856118580     -0.26466367634081      2.22415453224938
  O   0.36329917766278      1.11279183248074      3.92281187912632
  H   -5.57685155817242     -0.21708301641197      3.71713843625225
  H   -4.23191596228395     -2.05089522548183      2.74989902651279
  H   -1.79744340080475     -1.76209362600955      2.42979023213094
  H   -2.07479133485316      2.19917942198324      4.05751775403559
  H   -4.49579168870842      1.91003200974565      4.35787810173881
  H   -0.22113294518847      1.45198053054472      4.60925103672793
  C   2.10725995497947      1.10078179409667     -3.52646593259017
  C   2.28278414995911      0.95195976550248     -2.09350262796230
  N   2.35520158051279      0.81470204987647     -0.95519051079762
  H   1.77057154494528      2.11092404360091     -3.74600219199020
  H   1.33682799035500      0.39026037109282     -3.82660866353317
  H   3.03896937024195      0.89070348905262     -4.04610818509052
  O   1.80568612545723     -1.99211063897843      0.19114103256075
  S   0.90868135221061     -3.19117066857871      0.17437455774391
  O   -0.46801259157344     -2.63863443136438      0.43446362880090
  O   0.83985300468814     -3.59661152446007     -1.45278187598110
