6
Coordinates from ORCA-job orca E -708.184747983017
  Bk  -0.18987064009870      0.01247577238457      0.60716320056956
  Li  1.50085578076608      0.46129840055628      3.08662219961708
  Li  -1.25211593790073      0.48828817247328     -2.27666377298667
  Li  -1.17403952898154     -2.48089337601366     -1.90645477853689
  H   1.86330135999602      0.02912514177283      1.47334755667081
  H   -0.74812103378113      1.48970588882670     -0.98400440533388
