4
Coordinates from ORCA-job orca E -816.740105998374
  Pr  0.04055897254990      0.04274655002540     -0.03375623799822
  F   -0.75249256338765     -1.05314757805354     -1.59786385881406
  F   -0.80575128192120      1.92802571006830      0.08624582084095
  F   2.11417487275896     -0.09573468204016      0.10877427597133
