43
Coordinates from ORCA-job orca E -2343.979071571243
  Yb  -0.82685094731193      0.52043828216741      0.03539128412867
  C   1.88055485975257     -0.99196035417016      1.38780383324243
  C   0.43844411657491     -0.74107382086617      1.78904735920471
  O   -0.42723717612356     -1.52778607167581      1.31089638983446
  O   0.15707571741404      0.40825043148603      2.21944817741543
  N   1.86635795587648     -0.43650290021950     -0.00118800126662
  H   2.13989439946912     -2.04753855576703      1.40092922135336
  H   2.56694159444306     -0.42927706715078      2.01301649617718
  H   1.95182330591880     -1.18638814249946     -0.67462491388919
  H   2.66153696354842      0.17014220725921     -0.14903624677514
  C   -0.48967879550728      3.82324109144306     -1.02884426210184
  C   0.34934089197954      5.02713025613032     -0.62250644926148
  C   0.94791231972915      4.57914397798625      0.71027055068940
  C   1.23654415013946      3.11734173991461      0.43946550709002
  O   0.12961664403596      2.67574577860447     -0.39172145090376
  H   -0.50817918418686      3.65196414190295     -2.10368824861136
  H   -1.51382005379078      3.89706672641363     -0.65949672290194
  H   -0.24849375900900      5.93189584862255     -0.54515595717919
  H   1.14052432832061      5.20392072402008     -1.35094766669555
  H   0.22028754180320      4.67645337605446      1.51680884391908
  H   1.84252278511249      5.13286845880024      0.98470009937048
  H   1.25721103369112      2.48550533257388      1.32544331129019
  H   2.16231822869192      2.99398130364062     -0.12737094523688
  C   -4.90889102961371      2.48756705997698      2.26250422320810
  C   -3.80311889920920      2.00055151030959      1.45441601655482
  N   -2.92876899922607      1.61478522996883      0.82279578051345
  H   -4.76642707396625      2.17235332522000      3.29388533202379
  H   -5.84444813237241      2.08123027079856      1.88492049937003
  H   -4.94305780420329      3.57377699548225      2.21818163198444
  C   -3.04682603930619     -2.86453178702622     -0.22706580242223
  P   -1.97355749718275     -2.38419323476704     -1.57771123954397
  O   -1.64663390524187     -0.90530822213586     -1.54375465576837
  C   -2.79809173315927     -2.81778000894783     -3.10821588959407
  C   -0.50370935569356     -3.40057135726631     -1.45124131713100
  H   -2.53023743563775     -2.65343228507544      0.70937387277763
  H   -3.28714809509283     -3.92583091008605     -0.27980923968636
  H   -3.96943451477855     -2.28705574788386     -0.27610414314765
  H   -3.04061044759878     -3.87938227043790     -3.13124565040901
  H   -2.14781930085728     -2.57902917003805     -3.94849929165302
  H   -3.71501995682555     -2.23741372125064     -3.19924208158222
  H   -0.75604632666754     -4.45832405763018     -1.51700347597030
  H   -0.04153488398817     -3.19582150708970     -0.48519897760794
  H   0.18233451004979     -3.14765287679208     -2.25912580080856
