4
Coordinates from ORCA-job orca E -702.148418084867
  U   0.29966373094623      0.42021809947149     -0.16987209033059
  O   -0.55099898253702     -0.79208974077755     -1.23818749718351
  O   -1.01290294419513      1.60920057378910     -0.01667850222884
  O   1.86072819578592     -0.41543893248303     -0.01186191025706
