4
Coordinates from ORCA-job orca E -2141.945767363385
  No  -0.23630838490041     -0.57345497733705      0.74083541346315
  S   -0.88485995738143     -0.70354493236269     -1.77872030800994
  S   -0.37112708614284      1.75912040036946     -0.40343803310527
  S   2.08878542842468      0.33976950933027      0.00472292765207
