7
Coordinates from ORCA-job orca E -598.531359720542
  Am  0.00000780670756     -0.00000787960772     -0.00002510749194
  H   0.00000270462881     -0.00000587854200      2.00510987467326
  H   -0.00000670940329      0.00000770936241     -2.00513805652205
  H   0.00000140172947     -2.00513247210360      0.00001501838622
  H   0.00000171684559      2.00513538174341      0.00001130474782
  H   -2.00514664146315     -0.00000358801565      0.00000871294143
  H   2.00514972095500     -0.00000327283685      0.00000825326527
