23
Coordinates from ORCA-job orca E -1099.475033660083
  Ce  -0.85790153248304      0.06383507144117      1.82316737175928
  C   2.44884909609079     -0.72994330656150      1.92682625904173
  C   1.19228900502375     -1.14382740610935      1.21474177158740
  O   0.69583254620893     -0.33082912309234      0.34793365820134
  O   0.33275431236868     -1.85113499537568      1.82919011686085
  N   1.73327781856747      0.28693794587629      2.76418889643234
  H   3.18275272244527     -0.28193988729819      1.26609226721410
  H   2.87713783633165     -1.52897403036949      2.52165396656195
  H   2.07998440552431      1.22410775215768      2.58156978839694
  H   1.86426254085631      0.09850549547846      3.75400095784196
  C   -5.01212838703333      0.16929213911439     -1.07393326252819
  C   -4.71354786609831      1.22169759572477     -0.21557985303206
  C   -3.58176569841694      1.13847939488351      0.56197274553846
  N   -2.76638877447853      0.05876363869854      0.50767224133028
  C   -3.05616582420252     -0.96391429202680     -0.32933575882046
  C   -4.17151400708626     -0.93874479861964     -1.13215573744547
  H   -5.89549390879581      0.21228250692655     -1.69678038642586
  H   -5.34521615487104      2.09534692475971     -0.15027579430480
  H   -3.30414452932170      1.94122014547004      1.23835594667283
  H   -2.37003110418513     -1.80423652033085     -0.34417257606652
  H   -4.37817732632794     -1.76905831493130     -1.79115479494226
  C   -0.69302036340934      2.29792267994941      2.32912698744659
  N   -1.17284480670707      3.31681138423461      2.60389518867944
