57
Coordinates from ORCA-job orca E -5336.188632778689
  Lu  -0.09299792719752      0.15022663935505      0.18273829085139
  C   5.12683367560294     -4.48666750353593      0.83398670196939
  C   5.19074311598249     -3.28440174235455      1.52695828478741
  C   4.16043716894051     -2.36366955132809      1.41415734875947
  C   3.06373964211493     -2.64310617292390      0.60783988944932
  C   3.00064402208132     -3.84619442166667     -0.08468712132084
  C   4.03137848187700     -4.76736318217201      0.02811581166813
  C   1.95609495584099     -1.63784974126035      0.48351222065295
  O   0.96524766616235     -1.90957431826003     -0.26061677348589
  O   2.03778163358144     -0.55031806786812      1.09305701803825
  H   5.93098590150273     -5.20600246717953      0.92344970763793
  H   6.04377132017113     -3.06703297428969      2.15651218063310
  H   4.18133289192786     -1.42167246513994      1.94472002783712
  H   2.13501502392563     -4.04107128428377     -0.70306548807328
  H   3.98106009429002     -5.70507363967005     -0.51012728407854
  C   3.70531649525844      1.47270448373474     -3.42957435623116
  C   3.24181556186763      0.22774051332082     -3.37826907927211
  C   2.21347304524984     -0.15591064736417     -2.39663088617652
  N   1.66469339772390      0.63366311769748     -1.56901072926247
  C   2.05495216830829      2.03498082376924     -1.55064178763767
  C   3.20345504936081      2.50770552781116     -2.48438372091267
  H   4.46613725587318      1.75007663813362     -4.15159645329460
  H   3.60443537499610     -0.54062392345272     -4.04791887994582
  H   1.89529589919069     -1.19381434035035     -2.36550765885710
  H   1.13752976663036      2.61550697233411     -1.63483361310757
  H   2.95307520342410      3.42617393833364     -3.01765301627725
  C   -1.76622514308985     -2.92346241928346      0.22920059349707
  C   -2.98237819841778     -3.04299776820213      1.14765594936449
  C   -3.95681378932192     -1.97239242610767      0.61277296073638
  C   -3.19770898977993     -1.32436602662238     -0.54591359408867
  O   -1.81232368273601     -1.58915032249263     -0.28448850505808
  H   -1.83163090614708     -3.61986833249269     -0.61484570490489
  H   -0.81415305827277     -3.05651262910944      0.72863876325005
  H   -2.69774230728035     -2.82097130552624      2.17392116908369
  H   -3.40253345299795     -4.04826671186594      1.11847734654098
  H   -4.16898338494143     -1.23154865295042      1.38010998090097
  H   -4.90169976109482     -2.39747554608974      0.27484757054784
  H   -3.32149417971376     -0.25051345746250     -0.62132047138223
  H   -3.45633955421415     -1.78245526210627     -1.50635365925971
  Br  -1.45648160076366      1.31672224863124     -1.93995526175706
  N   -1.70995364649645     -0.24081901685260      2.47841809783806
  O   -2.03120886393850      0.54460199702535      1.56618657553324
  O   -0.61704641121663     -0.83020194970531      2.25498933083346
  C   4.59447955308178      4.19732923254762     -1.07161362813679
  C   3.99602455669141      5.06385077787344     -0.25491112281357
  C   2.81911286770054      4.70422957302868      0.54493527300852
  C   2.30985635754745      3.47387647595722      0.53146370953228
  C   2.90332066459131      2.38937116049136     -0.30822409871400
  C   4.09295717567589      2.79695298739318     -1.23063719716947
  C   1.06097682782713      3.12704301954791      1.31928272676942
  O   0.63021737496517      3.89696056151875      2.15810736865801
  O   0.55198521021570      1.98769301143593      0.99043463525342
  H   5.46273181660806      4.49815306305112     -1.64839709847092
  H   4.37861867503110      6.07419714197231     -0.17072029263422
  H   2.34097091681132      5.45175874176730      1.16466422954296
  H   3.09220680104864      1.50724921689179      0.30410747256992
  H   4.92231124794009      2.08848040634622     -1.17046375342217
