32
Coordinates from ORCA-job orca E -1752.434385839440
  Lu  -0.39488893552438     -0.36264333520847      0.07448143897208
  N   0.63539257109449     -2.08539444618309     -1.23189822777429
  C   2.09585433855521     -2.20800823919196     -0.87934465758826
  C   2.69386524677457     -0.82708788804761     -0.73732412097361
  N   1.94864526341316     -0.06724209964001      0.33187669504475
  H   0.21101202063324     -3.01013434829892     -1.14830578379672
  H   0.58286821175584     -1.90093108472272     -2.23495987060126
  H   2.62798929052058     -2.77792559570427     -1.63899822906721
  H   2.17399091335542     -2.76575798662510      0.05499706430059
  H   2.60907637432434     -0.26642735607526     -1.66965690215977
  H   3.75289504048729     -0.89109744598976     -0.49353959968979
  H   2.28442954280232      0.89625846776120      0.32277449370641
  H   2.27377976840420     -0.41253689597715      1.23692067786432
  C   -0.09405364781209      2.88060915446719      1.10373545044361
  O   -0.75477106791670      1.54691528363580      1.18322785120074
  H   0.48244169372764      3.03653831313760      2.00983545518814
  H   -0.86232491882560      3.63838442971994      0.98850621343454
  H   0.54675234321927      2.86515735236287      0.22726419182869
  H   -1.43861072947701      1.61384666005133      1.86472209978814
  N   -1.37573303080586      0.58031542422383     -1.87099032575751
  H   -1.89290572945601     -0.07688035497639     -2.46018537221255
  H   -0.73203264096838      1.03545166334247     -2.52292971105473
  H   -2.05941416557810      1.31010220793670     -1.65556345481306
  C   -0.28074221045069     -1.95232405032721      2.51039113967720
  C   -1.74234830454407     -2.21495185165131      2.25281408655565
  O   -2.06403332997173     -1.46701522128008      1.00191893532190
  H   0.04909174100704     -2.46507701369920      3.41499589936452
  H   -0.07638153838566     -0.88711243008652      2.70144872674554
  H   0.35527824674148     -2.36041162940997      1.70888955572707
  H   -2.38294703694085     -1.83008434518669      3.04161054812588
  H   -1.95480167641663     -3.26522611313812      2.07298909075923
  H   -2.99507364374236     -1.59550922521907      0.76729664143969
