5
Coordinates from ORCA-job orca E -792.670436434979
  Es  -0.41526444380936     -0.68289620988912      0.07781304683806
  Li  2.54361103859240     -0.21393452590306      0.40941043912081
  H   1.45151313117430     -1.56122222542171      0.51093075424239
  H   -1.23596766095414     -1.45620182304579     -1.55353237878239
  H   -1.64940206500319     -0.73278521574032      1.62743813858113
