4
Coordinates from ORCA-job orca E -838.083671308459
  Fm  0.02051401862295      0.02203969733728     -0.04051526877242
  H   -0.69653364235358     -1.00256810766556     -1.54315652445075
  H   -0.69816776866720      1.83781013403087      0.07036079862705
  H   1.97067739239783     -0.03539172370260      0.07671099459613
