47
Coordinates from ORCA-job orca E -1993.363647325100
  Ce  -0.05644225266127     -0.16110607255193      0.17584939705163
  N   -2.37475607338335     -0.72037810981437     -0.96173865252737
  C   -2.43117492464487     -1.65904232039013     -2.09741732173258
  C   -1.16795608654678     -2.50275381535808     -2.13728072929742
  N   0.04206049243391     -1.66996471308509     -2.02129589108507
  C   0.42562721020535     -0.96282150024922     -3.25652438010808
  C   -0.16090175065101      0.43650589536618     -3.33018108674681
  N   0.17716409745121      1.17382287959765     -2.09902343592654
  H   -2.90406936637887      0.12501727002143     -1.13936239883917
  H   -2.80107129805102     -1.13607585099449     -0.14012327363826
  H   -3.30151860727426     -2.31465386482203     -2.04466795677000
  H   -2.53501138768562     -1.08591339673506     -3.01604820340175
  H   -1.16382251617881     -3.18925306115846     -1.29297758537110
  H   -1.15261261038330     -3.09857572944091     -3.05500420786383
  H   0.81565465197268     -2.27214399052135     -1.75978584108501
  H   1.51302796014500     -0.88270304142904     -3.25785538060817
  H   0.13522182786723     -1.53219655483387     -4.14407339390658
  H   0.22167175738175      0.93598371311347     -4.22263388198085
  H   -1.24447056049718      0.41489015679074     -3.41653002840991
  H   1.17180672010916      1.38597091869867     -2.10075147281304
  H   -0.31943047152321      2.05764078201843     -2.07399069238879
  C   -0.04375003404115      3.01846013443620      1.46279005721029
  C   -1.47273080318499      2.53262480893215      1.23516529655854
  O   -2.42598673483982      3.17939456199517      1.56383523527425
  O   -1.53530784687439      1.32806067110086      0.67425130107671
  N   0.91372747029068      2.30313631033020      0.60178570428934
  H   0.18642339082733      2.80444078396992      2.50550256435691
  H   -0.01436735860471      4.09839425544178      1.33335866591143
  H   1.78327405605244      2.12217749360307      1.08793998922996
  H   1.15824378335347      2.87206957468651     -0.19926266704492
  O   -0.51955979641903     -2.04099372627369      0.89899402464301
  H   -0.81591394505915     -2.86499934522424      1.28570905017944
  I   2.95165638033631     -0.50169166677159     -0.41312092281270
  C   0.72050534159983     -0.32881791132981      5.03239225973218
  P   1.57546167497846     -0.46739377202578      3.46664853786370
  O   0.72801833942155      0.13784422880127      2.35597018499972
  C   3.13752058233499      0.39272248028195      3.61344767081292
  C   1.94243815986115     -2.19633261875587      3.19667719217508
  H   1.32163079492607     -0.74411363356200      5.84034227154378
  H   -0.22499867284099     -0.86632807709945      4.97376824418622
  H   0.51401300970590      0.72003091267127      5.24121966648356
  H   3.73930919598299     -0.03675388069386      4.41365454709383
  H   2.95630015050725      1.44472052956185      3.83273749874636
  H   3.67608801285047      0.30457369553154      2.66979083825109
  H   2.56473019367880     -2.57713046162742      4.00612653159861
  H   2.46772543776597     -2.30515997826124      2.24817276690183
  H   1.01315240568381     -2.76078496394135      3.15751990818756
