5
Coordinates from ORCA-job orca E -3877.309501813795
  U   1.71231593482222     -1.00422083318511     -0.48370737733582
  N   0.70433642369571      0.37613455804272      0.32961499729859
  Se  0.29638027602017     -2.75949201557224      0.99693603844745
  Te  -1.12413352457389     -0.93386636225431     -1.42009654984388
  Ca  -0.89440910996421     -0.32559534703105      1.64931289143366
