6
Coordinates from ORCA-job orca E -417.288899679014
  Th  -0.27053955983680     -0.09066897269059     -0.42435620587334
  Li  1.30093396389057      0.57225612914562      2.25094880122091
  H   0.55672612942599      0.50216084482056     -2.24063566038837
  H   -1.37783865386504     -1.85094756149252     -0.51304899140973
  H   1.43408707689765     -0.51361903767541      0.89260687959131
  H   -1.64335895651237      1.38081859789233      0.03449517685922
