6
Coordinates from ORCA-job orca E -13552.029604434474
  Bk  -0.17173617174658      0.04676074309932     -0.17043647719381
  Br  0.75144929913680      0.51549901604396      2.40218760004840
  Br  0.43390628730272      0.50078290976427     -2.63630833651794
  Br  -1.41556965531267     -2.19225627723202     -0.15428316059581
  Br  2.44615958427201     -0.66811767265670      0.42919943584720
  Br  -2.04419934365227      1.79733128098117      0.12965093841196
