4
Coordinates from ORCA-job orca E -2328.047164917866
  No  0.24968979873811      0.35776584542384     -0.22822573164831
  Cl  -0.89071319731191     -1.29907026772421     -1.61823860954511
  Cl  -1.29045054921720      2.22613554929096      0.20348711290684
  Cl  2.52796394779100     -0.46294112699059      0.20637722828659
