35
Coordinates from ORCA-job orca E -2096.325713051694
  Lu  -0.06733679139330     -0.36690557594451     -1.44485724298325
  C   4.93622541351112     -4.17572653940942      1.29280710925545
  C   5.17402401423445     -3.43935723515823      0.13963880086995
  C   4.16013570788558     -2.67428466999703     -0.41268700194527
  C   2.90877213376990     -2.64862856050547      0.19345070369800
  C   2.66993006579018     -3.38529566608748      1.34858277486450
  C   3.68619967302604     -4.14962816845186      1.89743677612384
  C   1.82279622163514     -1.83031016212932     -0.39727403057751
  O   0.67749556066563     -1.78656322445866      0.15619370660048
  O   2.02946760411535     -1.16633642653705     -1.46122270583888
  H   5.72928905818001     -4.77296193257080      1.72274506919750
  H   6.14927455195804     -3.46253649857405     -0.32673221801684
  H   4.32040362700396     -2.09204292096193     -1.30884750460642
  H   1.68875810298291     -3.34926211779819      1.80021034745638
  H   3.50633099298865     -4.72535001957096      2.79493559862132
  C   -3.10540346073116      0.32462717584388     -0.62163417193562
  C   -3.85352991426196      0.82073866566257      0.60167040736283
  C   -2.71081719340666      1.17851505711499      1.55165891632364
  C   -1.73184607972205      0.04666631701484      1.31086852569071
  O   -1.89618658813573     -0.29515522485305     -0.09525654528421
  H   -2.80856409340701      1.14908274670982     -1.27126759088906
  H   -3.62972159684690     -0.43024454641762     -1.20182941932760
  H   -4.47042301752890      0.02552133048168      1.02196504332189
  H   -4.49346346152149      1.66774381888078      0.36574998011853
  H   -3.01995590354312      1.23390358299016      2.59311990179542
  H   -2.25861987798431      2.12730584892535      1.26342631158420
  H   -1.96248644254200     -0.84478189934056      1.89365449811137
  H   -0.69248783743012      0.32400490054564      1.47532341009720
  C   -0.21188537576104      2.84971270411988     -0.62317239728783
  N   0.06043864229565      1.81470362845458     -1.09718926290037
  C   -1.68923297277442     -1.32757283869052     -4.22887234702971
  O   -1.03789452321649     -0.92439590789600     -3.06556585774259
  H   -2.29631938133220     -2.22045915087182     -4.05116919696727
  H   -0.97180510048796     -1.56346614529542     -5.01967048830445
  H   -2.35016175801594     -0.53936034522377     -4.60178989945622
