5
Coordinates from ORCA-job orca E -2256.074800242777
  No  -1.31545269901514     -0.57029748742415      0.62886294464665
  Ca  2.57062017158589     -1.22237906486576     -1.40442942649232
  Si  1.48176840567175     -1.68507265340137      1.24918922115807
  P   -0.09356580981248     -0.15802997531220     -1.94902469431152
  H   -1.94888006843003     -1.01126081899651      2.54746195499911
