4
Coordinates from ORCA-job orca E -1658.836642083179
  Gd  -0.01478084290293     -0.02394920308495      0.03517998771440
  I   -1.10502730370209     -1.59349177918683     -2.08197521657254
  I   -1.10338874845946      2.59937599886870      0.30188211801657
  I   2.81968689506448     -0.16004501659691      0.30831311084157
