5
Coordinates from ORCA-job orca E -1848.850153299431
  Sm  0.53731221808548     -1.00170006265065      0.26055209375998
  I   2.62286936140657      0.96376289359814      0.14161024576035
  I   1.40005424505525     -3.62909136877625      1.02723626792035
  I   -1.72078830946895     -0.82170209490541     -1.75500939731636
  I   -2.14495751507835     -0.15830936726582      1.39767078987568
