38
Coordinates from ORCA-job orca E -2588.714281028714
  Nd  -0.50964709973164     -0.84813975400457      0.00443120925499
  C   2.75892243743908     -1.76367023025470     -0.31340784890729
  C   2.54884685458448     -1.24893959859286      1.12167075868007
  O   3.52493317143749     -1.13033047967490      1.84294079393878
  O   1.33025284047567     -0.95285150327497      1.41837953565000
  N   1.49732282115661     -2.15905364225663     -0.94306183643992
  H   3.50724260796583     -2.55717045423405     -0.28816687898087
  H   3.17847160588123     -0.93005224047514     -0.87825949037379
  H   1.18228275442062     -3.07833396169224     -0.64981884732928
  H   1.54628158180042     -2.15060572094570     -1.95296593405167
  N   -0.45357824423893      1.57857807101151      1.18812433918623
  C   0.32030516986050      1.70554367674671      2.26667137290765
  C   0.75433062667328      2.92912607814879      2.74715279692393
  C   0.38733129938950      4.07249046113495      2.05525431781583
  C   -0.40890062899338      3.95408340497069      0.93442087395496
  C   -0.83213735057231      2.68693367307558      0.52843442165125
  C   -1.74709459388711      2.53574702293488     -0.60668347261340
  C   -2.76567464553776      3.43723344126841     -0.82720889683431
  C   -3.80317401255452      3.16417493556752     -1.70631369116841
  C   -3.84660785818194      1.87760905956620     -2.30101753900209
  C   -2.83380376227308      1.00615042147094     -2.12273852719035
  N   -1.68651877786829      1.34392237100863     -1.37101347190561
  H   0.62833064688851      0.78055484714660      2.73518372728672
  H   1.38832541918992      2.96993381851126      3.62037861456911
  H   0.73454271250608      5.04678350357849      2.37442730627439
  H   -0.67849427286983      4.82127716106685      0.34969328747926
  H   -2.79228207178971      4.33394413593625     -0.22291360804584
  H   -4.60178602133187      3.87496095954774     -1.85643190513044
  H   -4.70319415765047      1.56198182626773     -2.87908177248916
  H   -2.82064824746839      0.00614252336933     -2.52503909382576
  O   -2.10413652678889     -1.80435843152447      1.52340695740386
  S   -2.48577460488622     -2.71294278654371      0.32396040366500
  O   -1.08487481802835     -3.22754350476614     -0.09749866329435
  O   -2.75553710326632     -1.66218361410649     -0.76765631774240
  O   0.80983449786942      1.20923159332432     -1.27325553610764
  S   -0.20347953763265      1.06511829304814     -2.30784551005020
  O   -0.40561870118027     -0.34195113319771     -2.63712937314510
  O   -0.17879401080667      1.99780577684262     -3.38992250201408
