5
Coordinates from ORCA-job orca E -597.482955660562
  Am  0.14324854570886     -0.92918375091018      0.21569139794781
  H   1.66705064384602      0.40849038435874      0.03738680938379
  H   0.79460097198030     -2.76398683006877      0.79848523405767
  H   -0.71248856735945     -0.98241938904954     -1.63538053563421
  H   -1.19792159417573     -0.37994041433025      1.65587709424495
