5
Coordinates from ORCA-job orca E -2520.659898351062
  Lu  0.09340773409367     -1.00084375034084      0.22402679357485
  Si  2.27480113681346      0.80251194280218      0.11426388935180
  O   0.76075976720561     -2.88950589851019      0.74208365628710
  Cl  -0.94864017929342     -1.23667767145867     -1.99112492362894
  Cl  -1.48583845881930     -0.32252462249248      1.98281058441518
