4
Coordinates from ORCA-job orca E -1978.373720214223
  Tm  0.13891074168156      0.19414093956038     -0.34901329459834
  I   -1.16148613480564     -1.65924789822380     -1.94505409134105
  I   -1.13791369121197      2.52849656470590      0.41749600393898
  I   2.75697908433605     -0.24149960604249      0.43997138200041
