5
Coordinates from ORCA-job orca E -3172.077969693414
  No  0.65936988062384      0.05869075084984      0.37384637233380
  H   2.28080199422657      1.04011825452386     -0.44702035092968
  Sr  -0.31975953059066     -3.42347459160790      0.62703041650209
  Ga  -0.34364882434239     -1.57485516660274     -1.80742964962186
  Te  -1.58227351991736     -0.74751924716306      2.32563321171563
