46
Coordinates from ORCA-job orca E -2751.388561638274
  Yb  -0.10121933971369      0.16022460144965      0.01046444929445
  C   0.38762591721699     -0.47106978850989     -3.28717760979030
  C   0.33564937287676     -1.62912200716195     -2.28314922662884
  O   1.28585474175199     -2.42017581207044     -2.22594904221804
  O   -0.63615877143177     -1.55843304978810     -1.46224699789411
  N   0.67995812584928      0.72487535174383     -2.46267305025126
  H   -0.59097194140316     -0.34385099256099     -3.74799246876207
  H   1.13613584924448     -0.65276496562486     -4.05730675355056
  H   0.39085854716811      1.57819387140337     -2.92236238129773
  H   1.68033857652161      0.81301066981924     -2.32026214618945
  C   1.11815176178009      0.08262726762534      3.74381192984089
  P   -0.54162259633167      0.07958024782115      2.97948923809316
  C   -1.22125729015118      1.65539671415296      3.60843364319433
  C   -1.42295177287014     -1.14744558642297      4.01295192377132
  H   1.06156541638393      0.24141814938761      4.82182422096849
  H   1.70360538303728      0.88052522930508      3.28695511484188
  H   1.61280369132489     -0.86875540276242      3.54766023550371
  H   -1.14196885320844      1.71945757000512      4.69476183422090
  H   -2.26922526305080      1.74852665385477      3.32273326404523
  H   -0.66197895060519      2.47296457826846      3.15362477143809
  H   -1.32638348187224     -0.91756707463669      5.07501818740927
  H   -1.01704363387300     -2.14114106938442      3.82631979116599
  H   -2.47968719473501     -1.16173313429646      3.74788125002339
  Cl  1.13704718978215      2.38474520985422      0.70032725517265
  C   3.73321398244138     -0.31117478141367     -0.59773570938319
  C   3.12321252972119     -1.13806132087825      0.51636466230602
  O   1.73744595388862     -1.41226434166069      0.28129719892898
  H   4.80036127779951     -0.16906144242377     -0.42385208274288
  H   3.26541780505941      0.67465718931159     -0.62832989680952
  H   3.60666438223975     -0.81607677492593     -1.55695528104470
  H   3.16911566420010     -0.59688724465468      1.46058417620188
  H   3.65506577978289     -2.08345857158261      0.64067783148826
  H   1.65450693203613     -2.03254010754539     -0.47588602888374
  C   -2.41796073557156      2.59846590678857     -0.13902430625955
  C   -2.17256929692159      3.17822093183059     -1.52412396309588
  C   -2.73617027945468      2.09647196274545     -2.47120649907081
  C   -2.99166811001205      0.89015811550687     -1.55492031534580
  O   -2.29061475160654      1.18042674217329     -0.33281442978821
  H   -3.42837494816075      2.81323246422646      0.22279646858152
  H   -1.67979027676382      2.90387086533852      0.59878360479444
  H   -1.09979209725473      3.30767551713559     -1.66447835255940
  H   -2.65074593757339      4.14642262752214     -1.65603765945355
  H   -2.02732577188406      1.85030646333788     -3.26033995148412
  H   -3.65819902259003      2.41766518709374     -2.95187505834025
  H   -2.60787571037578     -0.05560709008962     -1.93080021386052
  H   -4.05444285269122      0.78467047069219     -1.32396162658048
