7
Coordinates from ORCA-job orca E -4082.903091965134
  Ac  0.49827506436025     -1.21380891440492      1.19942246282537
  N   -0.15514978913694      0.98540767575918      2.20113531920408
  As  -0.07006412798481      0.09126157505606     -2.69957940772805
  S   -0.64490251048596     -2.43378333378080     -0.98810159224189
  Na  -0.04017678817297      1.87439394431745     -0.23626896605334
  S   -1.95353183344071     -0.03030434196063      0.30708958451678
  Cl  2.36555998486112      0.72682339501365      0.21629259947705
