10
Coordinates from ORCA-job orca E -1538.176680264203
  Er  -0.36371649741491      0.64685770927902      0.96634300959344
  N   1.77281874341632      0.09083747906872     -0.02267249511674
  H   1.75684467515882     -0.62862273843612     -0.73736622651322
  H   2.45783125550595     -0.18699066115493      0.67352536106152
  H   2.11058539907197      0.94615247088495     -0.45912925656894
  O   -1.62384985977306     -0.44503620580781     -0.09944797409541
  H   -2.28248325698700     -0.97221155144338     -0.54070713162945
  I   0.27740696046660     -0.06454097990756      3.65423233279626
  C   0.09313223907395      2.78620402119271      0.04245497792463
  N   0.64363034148135      3.62815045632437     -0.52943259745212
