36
Coordinates from ORCA-job orca E -3131.371375835691
  Tm  0.05690086386812      0.33454376427428      0.21892625091654
  O   3.64206764494060     -0.18266256384533     -0.57179244518403
  S   3.85663586578461      0.72833850576001      0.85742197371792
  O   3.39125875133883      2.12344753863533      0.22081170116281
  O   5.27657668426392      0.85748447021585      0.97927513132863
  N   -2.44515470824328      1.57215687867135      0.50463569855622
  O   -1.97515006478606      1.27611132783216     -0.62185182531225
  O   -1.67904464551943      1.25494647407644      1.45173082463117
  C   1.45973626022340      6.61232511078444     -0.48871618924289
  C   0.68055493417310      5.71594167740395     -1.20561182794135
  C   0.86918251643537      4.35053700158866     -1.05010938265762
  C   1.83982130179135      3.88393314197027     -0.17530578501667
  C   2.62674661090066      4.77988080663901      0.54036550730304
  C   2.43390979335696      6.14382816394424      0.38227211202175
  C   1.96267556326211      2.39126925715538      0.03694509737694
  O   1.41479158305211      1.60837854801493     -0.85952034795487
  O   1.32551451871785      2.02829112960612      1.32322283100488
  H   1.31260649477636      7.67676122265973     -0.61237494799194
  H   -0.07426563687288      6.07950009997286     -1.88950423542294
  H   0.27721079731617      3.63920063242273     -1.60920288470185
  H   3.40150034390306      4.41180043990054      1.19968562188742
  H   3.05031107730696      6.84106016771988      0.93325973023054
  H   1.14340248924880      2.80430123124328      1.86065788109024
  C   -1.95049640831740     -2.93851901144813      1.25888504376017
  C   -1.23236936769215     -2.77824390505079     -0.05956375426745
  O   -1.30511012387905     -1.40850657303140     -0.53194259921994
  H   -1.87988198601166     -3.97332765910372      1.59352506266062
  H   -3.00771572468184     -2.68522325109090      1.16821957247713
  H   -1.49352530845211     -2.30231637036183      2.01554338031137
  H   -1.63745549671169     -3.42522711674706     -0.83714230582811
  H   -0.17044082839316     -2.98020443415337      0.04691889425564
  H   -2.20333702631223     -1.17983832724129     -0.79002377105377
  F   1.48396619966672     -1.19899333900162     -1.18775912486705
  P   2.98602192852871     -1.64071887256023     -0.66554629731225
  F   3.51504401659683     -1.98317139032620     -2.10938872021757
  F   0.91241108642023     -0.98628477652982      1.47725412949955
