44
Coordinates from ORCA-job orca E -4972.722018291948
  Gd  0.34356640352193      0.15052130994705      1.03797622990388
  C   1.18851936557507      4.65873695630179      1.04850420451493
  C   0.32830741915378      3.43468024604265      0.93345402492771
  C   -1.05228575570236      3.57196196372452      0.69426524028772
  C   -1.95035811136995      2.50884785816497      0.63526121453038
  O   -1.64059034535880      1.27679731383506      0.75026805812926
  C   -3.40933884428486      2.79142844896937      0.40627444251379
  O   0.91829832861155      2.32650853213416      1.04447293168752
  H   0.62021563148768      5.57951652375832      0.95117966693916
  H   1.95463069682832      4.61448557623967      0.27429111745473
  H   1.69525208898848      4.63725148040671      2.01316465261020
  H   -1.44826083343012      4.57034378957010      0.59348289972403
  H   -3.62137689249952      3.85429591446723      0.33390935020736
  H   -3.98841727691017      2.35967967700899      1.22284233556100
  H   -3.72265409874139      2.29894047568382     -0.51521815992006
  C   2.73399159033317     -0.23322857369587     -1.55047458659910
  N   1.91414811050776      0.08171043175988     -0.77835773427624
  N   -0.76005406779467     -1.18075577601837     -0.82950597771717
  H   -0.12083130726377     -1.23706570119499     -1.61474542220770
  H   -1.63913818524746     -0.79305529587060     -1.14953619756052
  H   -0.94005086114748     -2.11735123497799     -0.48658926107729
  O   -1.63029602784505     -1.22570157553973      1.90171116399214
  H   -1.36020797308153     -1.21719048388862      2.83476893682611
  H   -2.30103545261914     -0.53495165376760      1.82765537664485
  F   0.38661035138490      1.46314886312859     -3.55587550815219
  P   -0.00385261435029      2.16828087114852     -2.20180090751839
  F   1.18805018202359      3.19284877718642     -2.13678443076192
  F   -1.07804888648274      3.16064643841462     -2.81415989962594
  C   5.29967443805779     -5.02176731290993      0.07473977545087
  C   5.68517813360543     -4.06143204717148      0.99941564811674
  C   4.78831222767475     -3.08115413907805      1.39033777193687
  C   3.50189683301736     -3.07256014068962      0.85875559265990
  C   3.11223211693869     -4.04328064821470     -0.05824679660074
  C   4.01540521059044     -5.01331129548322     -0.45418612596879
  C   2.51830388878087     -2.04266853777191      1.24426256118793
  O   1.31247365844923     -2.18475914276896      1.16454856528505
  O   2.96879099715720     -0.87319651891806      1.71539339039073
  H   6.00386483634019     -5.78223370305989     -0.23437706801225
  H   6.68162203749428     -4.07811438529773      1.41783690571424
  H   5.08229004111992     -2.34945637639647      2.13217874516015
  H   2.10956555235209     -4.01456216226029     -0.45979915091294
  H   3.72187928390319     -5.76110273485228     -1.17746541356099
  H   3.85549735791187     -0.67670782558672      1.38933745044814
  Br  0.45912075231915      0.15887581752071      3.83413438766661
