4
Coordinates from ORCA-job orca E -3191.444613761147
  Pr  -0.17156076347160     -0.00620527261563      0.00494272195359
  H   -0.90074531192287     -0.97922545629242     -1.63511530770034
  F   -0.87062284066630      1.89999742663993      0.00300479428882
  Br  2.53941891606077     -0.09267669773188      0.19056779145793
