46
Coordinates from ORCA-job orca E -2850.239523171300
  Nd  -0.39259277153060      0.07574235547532     -0.31968578616577
  C   -5.24817124091056      1.02138521821007     -0.61891972603949
  C   -3.80838908866693      1.19928706253497     -0.61503308950908
  N   -2.66911296035651      1.30777056261662     -0.60793405841181
  H   -5.61897657003711      1.06170571904616     -1.64063363123229
  H   -5.72287712475554      1.80203152569610     -0.02899080919936
  H   -5.45211666085256      0.04208873596044     -0.18856976445523
  N   -0.07252121529769      4.29408241872002     -2.56699631166172
  O   -0.37115727904039      5.15754093085113     -1.91569039591518
  O   0.23656606729797      2.36979644380570     -0.69367918240743
  C   4.12777900271951      2.42198654217575      0.84259389635816
  C   2.94897895547260      3.19622477398898      1.38515083379678
  O   1.90773422372992      3.33287933404145      0.38735934328499
  H   4.92672179595975      2.40734335258846      1.58364585961061
  H   4.50943246372089      2.88773183737426     -0.06535072057727
  H   3.84496044235729      1.39290528669822      0.62883708720142
  H   3.21653128652271      4.22273159673368      1.62204095721176
  H   2.52960685467427      2.72003096050467      2.26824856110314
  C   2.05895083669416     -2.81459687254509     -1.42191698987509
  C   2.31359940683817     -1.34204075965035     -1.18758549452552
  O   1.13607100233038     -0.57821740815216     -1.41713872907898
  H   2.97916146280978     -3.37932707987523     -1.26948406293986
  H   1.70626016410044     -2.98884677735615     -2.43777542882762
  H   1.30911203491885     -3.18080539498411     -0.72223479104821
  H   3.06796224502770     -0.95394171478173     -1.87796232472583
  H   2.65888661844742     -1.16154471817085     -0.16742733623264
  H   -1.25569928030109     -2.74713173541495      1.05782041494774
  C   -2.94697769897590     -1.00013093764929      3.54632792438607
  C   -2.19812982165746     -0.14504737459536      2.64697270741515
  N   -1.60021531675929      0.50571239183998      1.91627083791513
  H   -3.62949280947121     -1.59313036321474      2.93891934155661
  H   -3.49932790081260     -0.39565908533789      4.26217794589687
  H   -2.24459892248326     -1.65112475603254      4.06190366576824
  C   1.12034501015850      2.28637512254840      0.20305387980244
  O   1.24617362550173      1.23765118291125      0.90096413577022
  O   -1.78149943766574     -1.53192941044172     -0.89592417406949
  S   -2.90972831051155     -2.42948876467669     -0.30083070973437
  O   -3.80263572963721     -1.55602846105502      0.47314442527936
  O   -2.04784860501446     -3.25857899823268      0.78759679003376
  S   -1.01620478063403      0.70306440872276     -3.42017483806680
  C   -1.24044982291976      2.25549496596056     -3.22046634034720
  N   -1.43621287393243      3.42670507811699     -3.05679031212518
  N   0.84899602917281     -1.62672541598569      2.27982258834294
  O   2.04453301826130     -1.45096448455603      2.26294188758172
  O   0.20684531336952     -1.61336612660661      1.12103158582722
  O   0.17842836213850     -1.84044116780743      3.27297033808085
