37
Coordinates from ORCA-job orca E -2516.711442727044
  Lu  0.11436971826748     -0.22686829997850      0.05214083593117
  C   4.05053883394825      1.35085167132217     -1.92354477664462
  C   3.10658304621510      0.68548916138831     -1.15685605430257
  N   1.79837195923634      0.90620734295006     -1.33021306443371
  C   1.44697442052906      1.79013286398774     -2.26986547260307
  C   2.40809940625206      2.44274528991513     -3.02792055987658
  N   3.70696638061507      2.22845560622463     -2.85910285080123
  H   5.10613501745130      1.16531475065863     -1.77503786230994
  H   3.40922037610915     -0.03424272538860     -0.40469706712728
  H   0.38786886289368      1.96652703700515     -2.40442118912503
  H   2.11580505118208      3.15462536413251     -3.78867228058131
  C   -3.95448288875774     -2.84180144263194     -1.09832796137212
  C   -2.66993284373640     -2.30467417527130     -0.68191603821425
  N   -1.65561247412950     -1.88475427080071     -0.34945446384556
  H   -4.47799786230350     -2.08072967630527     -1.67322362787692
  H   -4.53982006508427     -3.10496960183884     -0.21955301944500
  H   -3.79836134436319     -3.72998763727153     -1.70701643281080
  S   3.82514120687519     -2.48813337974361      0.99331614069282
  C   2.49732456714816     -1.68840913505129      1.39557438882120
  N   1.50336380719315     -1.08124934248753      1.61576082752949
  N   1.12400418980995     -1.96854465971167     -1.35277585070742
  H   1.16526116092101     -1.76739649775786     -2.34699980472904
  H   0.62204421002408     -2.84618157968397     -1.25945174044105
  H   2.08034188029236     -2.16948343486623     -1.05337604188864
  N   -1.39506275110704      0.94814411241332     -1.03238979554255
  N   -2.52370579042602      0.71323964222288     -1.37271530626344
  N   -3.58731769081841      0.47275732155335     -1.68301071943762
  N   0.59732153354845      1.89310899559910      1.15857516299663
  H   1.57191741345556      2.03503142588552      1.40270168205741
  H   0.07270451229964      1.93787472417930      2.02567962218440
  H   0.30396969776034      2.68647291925064      0.59748045028792
  C   -2.57379218761411     -0.23735461142919      2.26615820166197
  O   -1.15568212147517     -0.27109445294652      2.02725500046005
  H   -2.78186160704793      0.27260295375992      3.20379445957940
  H   -2.98015119277904     -1.24656593140069      2.29252145410750
  H   -3.01867592430377      0.31690307032197      1.44491736231311
  H   -0.69157050808141     -0.76344339820504      2.71336639175678
