5
Coordinates from ORCA-job orca E -618.272639718484
  Am  -0.54738152466491      0.07860126247059      1.42614934416927
  Li  2.44090791780700     -0.50697556715944     -1.10212099431824
  Li  1.40382533731596     -2.70653601436058      0.37403826050599
  Li  -0.22775772709606     -1.01064749091010     -1.93604975277684
  H   -2.37510400336199     -0.50148219004045      2.31004314241981
