4
Coordinates from ORCA-job orca E -790.925646519444
  U   0.57429244312333     -0.33975830011292      0.50362340946627
  Be  -1.06467287098075     -0.39009628721744     -1.55132108865288
  Mg  -1.47677024121161      1.89191850046025     -0.47564129730210
  F   2.56364066906903     -0.34017391312990      0.08673897648872
