5
Coordinates from ORCA-job orca E -4350.463408883919
  Lr  -1.05884703645072     -0.75833159836628     -0.54754448880857
  Ca  1.86121095752056      0.44426298234299      0.65796098973808
  In  0.87106110902036     -2.65659097788318      1.09167462971156
  O   -0.53971875159053     -1.25182465040026     -2.33583469713658
  Se  -0.43921627849967     -0.42455575569327      2.20580356649551
