19
Coordinates from ORCA-job orca E -1784.290251379873
  Yb  0.18904882037817      0.53209065280734      0.96620941444075
  N   2.26299167815553     -1.12515935883418      1.79852669403778
  O   3.15056070281890     -1.84347379139903      2.15598343209985
  O   1.54414437811064     -0.47095855638499      2.62978787791399
  O   1.97648612775654     -0.96673951201606      0.56205125043772
  C   -1.17318820220407      4.70053470675896     -0.31793628833191
  C   -1.30065106840929      3.23465592878777     -0.00164144516481
  C   -2.55569562290489      2.62124906918408     -0.13285137035039
  C   -2.84519647775783      1.27229257101595      0.12406681118429
  O   -2.00747353483082      0.40387713557643      0.51500821176721
  C   -4.25540115919559      0.78412780868411     -0.07126508068617
  O   -0.23596288518622      2.65400492406562      0.36990614607104
  H   -2.10992484128246      5.14419484955248     -0.64283721068418
  H   -0.41916706858972      4.82885388906538     -1.09433587071704
  H   -0.81220653090826      5.22046763447395      0.56948107199689
  H   -3.37350763024885      3.24404660157019     -0.46039275004761
  H   -4.92957632068590      1.56739467403539     -0.40601637342815
  H   -4.61690185929159      0.36876048182850      0.86941038226644
  H   -4.24837850572419     -0.02711970877196     -0.79915490280572
