5
Coordinates from ORCA-job orca E -1136.397521062534
  Fm  -0.16358367317186     -0.74584090494644      0.13340642514505
  O   1.95213381605619     -0.19432528868977      0.31581987094838
  O   1.28382671477482     -2.30183840296122      0.65457257035599
  O   -0.95525529346970     -1.12012599045872     -1.71052314334222
  O   -1.42263156418945     -0.28490941294385      1.67878427689280
