31
Coordinates from ORCA-job orca E -1221.034158503008
  La         -0.18968433254538      0.48285968918688      0.04011395011971
  C           2.89643839399666     -1.14352893659354     -0.77383672475227
  C           1.78541757831110     -2.21247040668030     -0.69748281295405
  O           2.14017601797298     -3.39735027530238     -0.65510391719532
  O           0.57921146731551     -1.77882286859977     -0.63865960114935
  N           2.36594169328801      0.21548425509769     -0.91952479057357
  H           3.60063183998936     -1.44281900194483     -1.56443811667910
  H           3.44513113888540     -1.20653669206974      0.17447233319365
  H           2.13200718576922      0.43730061503396     -1.88285825809904
  H           2.99290313634214      0.92724556473433     -0.56102519228352
  C           1.38001941810411      2.25365187261925      1.36719684474616
  N           2.30099776664769      2.86505506837544      1.74249712688158
  C           0.71682164611877     -3.62623533773186      2.37549533000604
  P          -0.61929302200017     -2.39684259057830      2.36161437415558
  O          -0.12199333146312     -0.97760624100216      2.15939353323798
  C          -1.44547445889230     -2.53710846545549      3.98549812106384
  C          -1.82826770109717     -2.97085892888864      1.13960433129955
  H           0.32819987751259     -4.61229502077924      2.65351755077407
  H           1.48076239602195     -3.32006175476871      3.09753424966470
  H           1.16555552962914     -3.68400280603470      1.37421920066875
  H          -1.77992555726213     -3.56147556297848      4.17914031674260
  H          -2.30827538806786     -1.86379875940687      3.99963767837979
  H          -0.74760834923115     -2.22675370265675      4.76931997852017
  H          -2.27894835411755     -3.91580020095983      1.46229483397918
  H          -1.30346371650486     -3.10260423025142      0.18734780690469
  H          -2.58799289051064     -2.19211759863629      1.00535291793801
  O          -2.03293602552195      2.50098410664467     -0.57891562491283
  H          -2.63003644232350      1.74214612810828     -0.43520321154716
  H          -1.65091142865672      2.33802120481368     -1.46098641722543
  F          -2.44212957851846     -0.04768350564362      0.21288406736116
  F          -0.21613468509781      1.18450469745414     -2.13823845387452
