6
Coordinates from ORCA-job orca E -1293.733511247802
  U   -1.41570718978035     -0.89834113766715      0.28470064451486
  Na  0.83237807718308      1.41594882307129      1.86776440994331
  Mg  0.28437358835689      0.59751550064513     -1.65627755632001
  B   0.15401156014600     -1.63713379002007     -1.14413367234531
  In  1.56061366462512     -1.56078152931028      0.74362957130290
  Sb  -1.41565970053072      2.08279213328110     -0.09567339709575
