6
Coordinates from ORCA-job orca E -2909.433377597491
  Pm  -0.19542150748331      0.28731451909711     -0.02621533463171
  Cl  0.16372542449147     -0.79056818179815      2.41625731679821
  Cl  0.75997605129573     -0.62690953224703     -2.37225261132739
  Cl  -1.60267930872024     -1.85076041098580      0.80795865589361
  Cl  2.38885051646145      0.57452403801073     -0.72237244235467
  Cl  -1.51444117604510      2.40639956792314     -0.10336558437805
