5
Coordinates from ORCA-job orca E -1303.736273546320
  U   -0.12607612158304      0.54315664604888     -0.13741203291908
  H   1.55147220400633     -0.53149597638280      0.33467580329968
  Sr  0.56220825303715     -2.70948198166063      0.65339311886451
  S   -0.39835136557744     -1.34154560123197     -1.61378766460410
  S   -0.89476296988299     -0.60767308677348      1.83519077535900
