5
Coordinates from ORCA-job orca E -814.598769521997
  Np  0.22857953307794     -0.90406944655383      0.17101087778336
  O   1.77787420095099     -0.45168340193996     -0.57953383855059
  O   0.94971184844412     -1.84525083123682      1.47686520774306
  O   -0.77877350601791     -0.04410407898005     -0.99407768290873
  O   -1.48290207645514     -1.40193224128933      0.99779543593290
