44
Coordinates from ORCA-job orca E -2984.730949995318
  Gd  -0.50440989920583     -0.40337033149595      0.32826822116035
  N   -0.11121343325797     -2.31196738513043     -1.39765961985142
  C   -0.18725328148647     -3.59197139883966     -1.02939265194972
  C   0.06309651962699     -4.64173996054204     -1.89403845644565
  C   0.39769386647294     -4.34480727468384     -3.20262651346970
  C   0.49064437851217     -3.02008762806649     -3.58790705007173
  C   0.24751429685360     -2.02073888756910     -2.65441289717790
  C   0.36675454650098     -0.57687196521834     -3.00843940540891
  C   0.98791534860869     -0.16378192464339     -4.17972313411107
  C   1.05244662648991      1.18678465082352     -4.47114012058438
  C   0.49614143910560      2.09386498688545     -3.58708227360135
  C   -0.08346914973135      1.60834308039436     -2.42900083841671
  N   -0.14365360191752      0.30629623753293     -2.13979701436360
  H   -0.45233353411689     -3.77484284730504      0.00366648714150
  H   -0.01164447932828     -5.66001923716411     -1.54282676849267
  H   0.58843056144848     -5.13329496769995     -3.91748810130318
  H   0.74573567538102     -2.77241909277164     -4.60592564521093
  H   1.44545418230249     -0.88032397257639     -4.84284334524139
  H   1.54020473446429      1.52399704782458     -5.37535154244044
  H   0.51969547009119      3.15711807441053     -3.77404425577492
  H   -0.51629187134771      2.27235339598985     -1.69268063625204
  S   -1.90970120441886      4.03393078889686      2.03680537166658
  C   -1.59832414302200      2.74112994447980      1.13200798530149
  N   -1.34622417688010      1.78543256187173      0.48713006559824
  C   1.29685945307054      1.83210580160725      2.99615707943128
  P   0.26974440598718      0.34075840626014      2.98479014950643
  C   1.27238188276453     -0.95219999957831      3.76473673243238
  C   -1.09139852763155      0.67600679721052      4.13606845399987
  H   1.67371731674910      2.02830274367973      4.00112236853603
  H   0.70175953657945      2.68294751288869      2.66456883162640
  H   2.13275008275739      1.68687343271127      2.31321993206040
  H   1.59481095899241     -0.64600647343170      4.76083108430175
  H   2.14329723321575     -1.14166826897303      3.13867801274204
  H   0.68497039063198     -1.86667412539184      3.83157030994060
  H   -0.70440853392258      0.91790645530293      5.12710212485824
  H   -1.73477940492637     -0.20043902875793      4.20768659444735
  H   -1.67561340086740      1.51894862208818      3.76599154874610
  S   3.63730519872851     -1.47078873380393     -1.59594327723811
  C   2.62406477298155     -0.88635348909147     -0.49257646259025
  N   1.86193631943263     -0.46196139289026      0.30561194587374
  N   -2.24533438609618     -2.34697058981221      1.56065904459322
  O   -0.97734299152595     -2.35717754497580      1.74932223527891
  O   -2.67133305979769     -1.45022633805117      0.76860033716180
  O   -2.97090967111058     -3.13347214648932      2.09877506355392
