30
Coordinates from ORCA-job orca E -4431.864079820183
  Gd  -1.56545208493632      0.37968036550112      0.67414747050663
  Cl  -0.83491290229820      0.34792625366936     -1.80887127951008
  C   -2.78538752011304      4.51271464895132     -2.37202641921880
  C   -3.14574015397808      3.60018665525171     -3.35519139452211
  C   -3.66250766401018      2.36728988846479     -2.99918587879443
  C   -3.81814944695546      2.04947606867323     -1.65286397949034
  C   -3.45932124585129      2.96565508896054     -0.66936755855215
  C   -2.94114373955424      4.19753451770182     -1.03019038935481
  C   -4.27467522241108      0.70701152786103     -1.22649151149925
  O   -3.90497370896737      0.17878129420643     -0.19039384857914
  O   -5.12892009109268      0.05237985719733     -2.00237743303695
  H   -2.36824112529806      5.46933008518066     -2.65515120641196
  H   -2.99767799129511      3.83986000374805     -4.39867719571520
  H   -3.87071083484405      1.63508615372697     -3.76997176938786
  H   -3.58913870491972      2.72283012404187      0.37746966663796
  H   -2.64585678320164      4.89681227086460     -0.26101095255142
  H   -5.39725068384894      0.60742847014584     -2.74330694212594
  Br  -0.98225971635750      2.62358299727321      2.14583285562720
  C   0.49912569558223     -2.93036367360254     -0.02317249126282
  C   0.75422519502409     -1.73206588099101      0.87128349569565
  O   -0.44773163306167     -1.22590610986367      1.41208379923170
  H   1.43829368482816     -3.34371433235456     -0.39438160117187
  H   -0.10713746140808     -2.63597106230087     -0.88045523758638
  H   -0.02781236038231     -3.70878680093104      0.52948851067217
  H   1.28191773537951     -0.95745214378164      0.29971004768487
  H   1.41108805872373     -2.00573460078054      1.70393351966228
  N   -2.99192539635699     -0.52623966262126      2.61961649371076
  H   -2.95660519459622      0.11335006546927      3.40511420844494
  H   -2.47163080673007     -1.35881210199976      2.87494254031043
  H   -3.95728789706802     -0.78136996766300      2.45516448058733
