5
Coordinates from ORCA-job orca E -2393.435248620562
  Pu  0.13810226298938     -0.92516436197533      0.21467488901158
  Cl  2.00364635840607      0.66219018797938      0.10212549857365
  Cl  0.99026124015327     -3.13823021260644      0.83421782863317
  Cl  -0.95397859111678     -1.06359094968673     -1.97614069291541
  Cl  -1.48354127043194     -0.18224466371088      1.89718247669701
