45
Coordinates from ORCA-job orca E -2054.790090012358
  Ho  1.19156716611606     -0.29508670625768     -0.72171931738851
  C   1.51370458286347      2.32315051916383      0.06555792054686
  O   1.73579675143495      3.35965644012929      0.41234836002599
  C   -0.18404855450255     -2.14759465311333      1.68947541110092
  C   -0.48197238461592     -2.05056963531148      3.17133633029537
  C   0.56414615981648     -1.04752529644863      3.65438982782011
  C   0.56897152448374     -0.02224583308849      2.54123272001705
  O   0.30085258562784     -0.80257017521713      1.31264272497467
  H   -1.05268354598383     -2.36553463907959      1.07184492346137
  H   0.61876170852053     -2.85265477921648      1.47361733068273
  H   -0.39733116439218     -3.01826302653742      3.65914601222818
  H   -1.48935483570315     -1.66957451957899      3.33766528071786
  H   1.54261461540698     -1.51899522579854      3.74518347195727
  H   0.31084599885286     -0.59745096837519      4.61080728779002
  H   1.52592906017353      0.47994471018239      2.41064338711081
  H   -0.23542357800542      0.70531516704239      2.64229972761886
  C   -2.08703880761446      0.14702037265822     -1.14247019371543
  C   -3.08477169134630      1.24165073987850     -1.46147374085947
  C   -2.39608123911168      1.98666650331464     -2.60383275507330
  C   -0.95624108076427      2.01401352941868     -2.13897937628273
  O   -0.76543910041454      0.73902367698208     -1.42717590305430
  H   -2.20121717762176     -0.71732825499214     -1.79533852459081
  H   -2.08800900042655     -0.16744864826944     -0.10023775049269
  H   -3.22589777473292      1.89783634553683     -0.60293527217826
  H   -4.05210268272269      0.83304377137627     -1.74195869808234
  H   -2.78791058157574      2.98914463403132     -2.75525868735569
  H   -2.48923996056820      1.43591091727195     -3.53968911166991
  H   -0.77909119379043      2.82191559326868     -1.42900398756080
  H   -0.22257128387202      2.06194523990180     -2.94052848425535
  N   3.59823619941529     -1.15482067487223      0.23188357327993
  O   3.17335413217487      0.07091316836738      0.33314735278492
  O   2.78416666514878     -1.91155480000014     -0.41978309886840
  O   4.61532769629598     -1.52200234840967      0.68832929876147
  C   -0.14214094942931     -4.62068861383859     -2.78560202643824
  C   0.08514609183628     -3.30199877415001     -2.22893290402726
  N   0.26767196010040     -2.25950564074996     -1.78473552629378
  H   -0.34130443511564     -4.53540110647551     -3.85273824836502
  H   -0.99713358164304     -5.08033672193982     -2.29195749101614
  H   0.74452816775406     -5.23291810525389     -2.62654994348562
  C   3.64734782333353      0.77250324145609     -2.87150608026292
  O   2.22801654957760      0.44256789101237     -2.68593095156510
  H   3.72705797860725      1.65386613472530     -3.50011194641842
  H   4.15639672281295     -0.07553602228532     -3.31972088374937
  H   4.05197039545466      0.97908686018904     -1.88664493913260
  H   1.82859406814435      0.34152971335294     -3.55633509899156
