17
Coordinates from ORCA-job orca E -1640.908667245502
  Ce  -0.16163294181505      0.86712460469393      0.60823686265672
  C   -0.93673117273636      0.09885069710281      3.11434607985219
  O   -1.29002774127208     -0.14540195195416      4.14074991068793
  C   3.69559252769603     -0.77184763817472     -1.28662693133030
  C   2.38447789745114     -0.41903923271922     -1.00512448921124
  N   2.08451924217706      0.19197565277742      0.15444973257255
  C   3.08220260945534      0.45229497719835      1.01738444620767
  C   4.38286521738906      0.08683183648099      0.70849988861925
  N   4.68063224816980     -0.51992799560430     -0.43394904920732
  H   3.94732738272917     -1.26430281899703     -2.21684661303437
  H   1.58261377935082     -0.61896948687264     -1.70712115563274
  H   2.84318639201722      0.95698106441794      1.94693300185484
  H   5.19304964696305      0.29156230071251      1.39615076847883
  S   -2.79603412206929     -0.49936217499154      0.39544581412319
  C   -2.06683464817725      0.20339746097529     -0.83807462613785
  N   -1.18169136882515      0.80330975313066     -1.37733648797858
  I   -0.14551494850359      3.37242295182369      1.71038284747921
