4
Coordinates from ORCA-job orca E -978.219601656225
  Md  1.11761151649095      0.26059102473866      0.19822052928235
  Li  -2.53462238429156      0.10987503347935     -1.75863058507722
  B   -0.67217138782619      0.19667627440750     -0.75952939314007
  N   2.68752787026013      0.31470289656870      1.03901851368737
