47
Coordinates from ORCA-job orca E -1788.682294797351
  Pr  0.48150959500027     -0.24237303557934     -0.73818837258742
  N   1.30975548618341     -2.08294307931557      0.47615329757127
  C   0.42152557649698     -2.85696653773388      1.11627631074890
  C   0.79755342952284     -4.00765811076458      1.77747813505857
  C   2.14063357573009     -4.35937496231593      1.76384476319211
  C   3.06018221914223     -3.56145224764478      1.09078871278986
  C   2.61820779452423     -2.42535196175669      0.44416395008560
  C   3.46532267788958     -1.51302046563939     -0.34541620295919
  C   4.81624396076309     -1.68477221060696     -0.56756699591829
  C   5.49619508273467     -0.78230773249002     -1.37850449754915
  C   4.81179910368004      0.27678840627581     -1.95583368429946
  C   3.46203789747433      0.40687147778616     -1.69730095244517
  N   2.81475255511120     -0.46217497510713     -0.90374350820148
  H   -0.61986940855616     -2.54558485386569      1.09334977816532
  H   0.05827693030613     -4.61011643275194      2.28472205126363
  H   2.47363575110136     -5.25650308208651      2.26854922335731
  H   4.10324154583185     -3.83987557440744      1.07024691953799
  H   5.34102128472407     -2.52042599699174     -0.12870885455723
  H   6.55388736365632     -0.91479320269293     -1.56376742062361
  H   5.30564020698541      0.99168861304299     -2.59789109421137
  H   2.88557241557217      1.21604513614284     -2.13017826361583
  C   0.89123889394496      6.11295772913718      1.48369754354959
  C   0.88481337470653      5.04083044375211      2.38170865154484
  C   0.78772428708019      3.75811310678176      1.90397203696667
  C   0.69835259763568      3.55055782030313      0.50636012954144
  C   0.70594823526721      4.64155324838211     -0.39618812173330
  C   0.80125380372262      5.91721699545033      0.10296151061895
  C   0.61158620084563      2.25089735717114     -0.00567486111692
  O   0.54730264764381      1.15953800346307      0.78766721876029
  O   0.59049880643771      1.89898348645759     -1.24881818400264
  H   0.96812927122307      7.12141019680673      1.86898589767552
  H   0.95795874179823      5.22558142164499      3.44349618216290
  H   0.78794786792090      2.91655932590656      2.58305930546207
  H   0.63098620550059      4.46617638741282     -1.46053520740391
  H   0.80579927122317      6.76647348457096     -0.56458571436108
  C   -3.91051087466776      0.08730723341755      0.57730812786535
  C   -2.52480051433559      0.00038049204428      0.54567652780169
  N   -1.90224426903730     -0.18212227673918     -0.62805855167707
  C   -2.62178864912640     -0.26782369505353     -1.75302036296935
  C   -4.01004388041445     -0.16931914100152     -1.68257816582782
  N   -4.63455798103264      0.00484037618487     -0.52994431675825
  H   -4.42965159797562      0.23524458717019      1.51622876443595
  H   -1.93038904173349      0.09311076318089      1.44668666506657
  H   -2.11099321616003     -0.42237254007730     -2.69450860050283
  H   -4.60746876778716     -0.23946534978078     -2.58330979928459
  C   1.01005828204426     -2.40580555250274     -2.78087547034458
  N   0.34092526140171     -1.46472307558055     -2.46258450027187
