4
Coordinates from ORCA-job orca E -3750.211137394163
  Cm  -0.06726247792637     -0.00749462466772      0.11751546124196
  Sb  -1.20152541714062     -1.56505083651662     -2.14584997666862
  Br  -1.15432938031140      2.55760354478460      0.24426945240538
  I   3.01960727537838     -0.16316808360026      0.34746506302128
