24
Coordinates from ORCA-job orca E -1940.336525216238
  Nd  -0.01093107878563     -0.20938100041314     -0.29277220516011
  O   -0.06037964550148     -0.47237525146588     -2.75151568104585
  H   0.24235368754779     -1.13046750268949     -3.38874826265302
  H   -0.45395139521059      0.24276150806995     -3.26896255681578
  N   0.09174552345778      0.24820691170538      2.25285731532562
  H   -0.31279267390935      1.17227730356434      2.40006424879217
  H   1.01874038190884      0.29281328395706      2.67092142054690
  H   -0.44219576767823     -0.37515743259042      2.85480407083733
  S   -2.02953431596117      4.19697584152001     -1.10633509626130
  C   -1.41938655820085      2.79806692133776     -0.84501496320027
  N   -0.94652129498895      1.69765135083263     -0.64098605026695
  S   5.31786890262389     -0.60820030907702     -0.47975858592870
  C   3.69002945921571     -0.55302548186379     -0.37876204495695
  N   2.52674741333044     -0.51342222738103     -0.30577587042157
  C   -3.12645397026350     -3.70672799843091      0.75264719804626
  C   -1.95133167319486     -3.01301150700463      0.51347671006205
  N   -1.97383710671478     -1.72699372993958      0.13620051320992
  C   -3.17609427954459     -1.14821288783186     -0.00093521790064
  C   -4.34148832552264     -1.86059841827955      0.24205563254566
  N   -4.31592508429808     -3.13223228536930      0.61798638334944
  H   -3.10413404675965     -4.74439043970054      1.05870059304879
  H   -0.98873286890434     -3.49640005943546      0.62649534926144
  H   -3.20658277156395     -0.10812656498936     -0.30418110755081
  H   -5.30961251108146     -1.39023002452486      0.13063820713667
