5
Coordinates from ORCA-job orca E -924.510585737736
  Bk  -0.41045174555726     -1.62181937295521      0.83059393577992
  Be  1.37957246043628      0.62043901625157     -1.18154098970990
  O   0.48339067010001     -3.00595936994823      0.25627292225411
  O   0.62570880224363     -0.27918121749886     -0.38238479752197
  O   -1.38373018722266     -0.36051905584926      1.54911892919784
