4
Coordinates from ORCA-job orca E -886.621173484329
  Dy  0.01125091586823      0.04438382440230     -0.05387977588857
  H   -0.68899626823775     -1.04181734277460     -1.55576984956662
  H   -0.71091329078944      1.87222881931030      0.09743520822578
  H   1.98514864315897     -0.05290530093800      0.07561441722940
