39
Coordinates from ORCA-job orca E -1860.044570285188
  Sm  -0.11688742954325      0.38819342935456      0.86663115012293
  C   0.54251982665376      2.81260762860979      3.35276988963031
  C   0.43401379859737      1.38782105013170      3.88732439775146
  O   0.58038366233551      1.24752066651304      5.13832671492417
  O   0.23003059058625      0.42006224321451      3.13027236510817
  N   0.12832677593184      2.80966018308762      1.92678971311419
  H   1.58523388950347      3.11689160568741      3.46087432499407
  H   -0.05459503558817      3.48517115906746      3.96843271565995
  H   0.76860192999145      3.41914268824558      1.41946999809995
  H   -0.77020479265002      3.28638838982588      1.85839250308985
  C   2.75321444665687     -1.39681935283501      0.60792178865828
  C   3.29639845214657     -2.33792054021841     -0.44072595394267
  C   3.11626723986322     -1.54270002165052     -1.73333747168483
  C   1.74050288992584     -0.93660252775411     -1.56774774117786
  O   1.61273587535415     -0.69284508139666     -0.08544421920815
  H   3.46693215396448     -0.62473047633289      0.88677975082245
  H   2.34056820726683     -1.88458969911570      1.48925071463119
  H   2.72721834198924     -3.26662767227755     -0.46396553769368
  H   4.33816280427735     -2.58122830277728     -0.24386849473003
  H   3.16089860705475     -2.17014814502833     -2.62059671872856
  H   3.87320303012005     -0.76498915584754     -1.82627472050366
  H   0.94443145319121     -1.62863367583031     -1.83703148048490
  H   1.61278634281621      0.02332035051741     -2.06551768262859
  C   -5.47241764999692      0.30251793429139      0.57085206804816
  O   -3.99309431485367      0.35444211959240      0.66187016991525
  P   -3.06559329451024     -0.55509941927590     -0.21480964619720
  O   -1.87075668673163      0.61185467027558     -0.65965919958843
  C   -2.25357786757388      1.45140666770735     -1.81462640981195
  O   -1.93184234990631     -1.03823559229975      0.98488896464773
  C   -2.37286433621939     -2.15681144855889      1.84837603907344
  H   -5.83662026610618      0.02502145302872      1.55268559340441
  H   -5.77549842793666     -0.42618714215774     -0.17719320533399
  H   -5.80386783852622      1.29752056018056      0.29949873858279
  H   -1.35436211705966      1.93700482725404     -2.18001267395748
  H   -2.98247032887539      2.18611341937479     -1.48625836331300
  H   -2.66437726222810      0.81217094929863     -2.59289956196587
  H   -1.50655491850803     -2.49276519389416      2.40835612650992
  H   -2.74109506155387     -2.96070578278600      1.21574176174219
  H   -3.14475033985873     -1.79309276522169      2.51946359241989
