35
Coordinates from ORCA-job orca E -2510.357279497534
  Tm  -0.02652554750826     -0.14582454820498     -1.00544859802935
  C   -1.64178972489174      6.25914954172210      0.82592543741305
  C   -0.90792083308487      6.04151516964090     -0.33292993949460
  C   -0.58581827897415      4.74969723789273     -0.71408409485277
  C   -0.99945942586330      3.67845790549726      0.07114979160609
  C   -1.73562565170877      3.89513081651361      1.23175714611770
  C   -2.05665543177322      5.18854310094263      1.60769273448414
  C   -0.65286147831358      2.29909021339274     -0.33250661527123
  O   -0.01063484561081      2.07674870533607     -1.40406194863059
  O   -0.99428108518113      1.30792466667368      0.40067997353441
  H   -1.89366017622183      7.26906610026752      1.12088190828697
  H   -0.58939280384941      6.87899838429674     -0.93795510531152
  H   -0.01771559427171      4.55504861082702     -1.61260620392918
  H   -2.05166878113305      3.04623992029875      1.82142931522062
  H   -2.63120168373731      5.36425062498026      2.50670436322472
  S   4.21309785006544     -2.05785047846633      0.37321753383281
  C   3.04972116089202     -1.15313900438543     -0.27211686430340
  N   2.15741358444480     -0.52268424750045     -0.71426159278120
  C   1.98235487209040     -0.71303943442279      4.99795218116844
  C   2.39396170589374     -1.96880018912989      4.57263998694644
  C   1.95333621603024     -2.46238825707782      3.35802882377037
  C   1.09419483212040     -1.69778472148704      2.57086817159448
  C   0.66878566829207     -0.44333880800836      3.00685558083222
  C   1.12080185931897      0.04787157798287      4.21850272153178
  C   0.61680453293806     -2.17723581237435      1.26212375880193
  O   -0.31769262178726     -1.62737085120783      0.66682198234712
  O   1.18539373375052     -3.21243731851889      0.69044156803422
  H   2.33346631796954     -0.32636826314703      5.94506617590161
  H   3.05830935316115     -2.56092119368013      5.18565818220672
  H   2.26815634832395     -3.44787938585336      3.04208899686116
  H   -0.00951475457477      0.13667168424510      2.39518110272315
  H   0.80209634136007      1.02406417079826      4.55580712467027
  H   2.11274519592990     -3.31341973774489      0.97735344287453
  C   -1.63936497448870     -1.47492305847090     -3.63648893431865
  N   -1.06829234408754     -1.00993149244639     -2.72379274829569
