20
Coordinates from ORCA-job orca E -2062.992510327199
  Pr  0.52103344554845      0.38628711753788      0.14020761034617
  N   -2.11628860360886      1.28222944847480      0.26995856079918
  O   -3.21117901355327      1.70143153222240      0.31001253213469
  O   -1.80746394810504      0.08629131222850     -0.06709132634251
  O   -1.07207886853999      1.99740157521794      0.56870261525295
  C   1.22567678565305     -2.51584595701903     -1.36321569080555
  C   2.50143798100355     -1.86681518994403     -0.84450417673303
  O   3.60038052808494     -2.26354502046828     -1.03845562345844
  O   2.22881461869690     -0.71425528730671     -0.16518862872633
  N   0.03791613779233     -1.92680368150991     -0.71589884661246
  H   1.29469214916387     -3.59362507995837     -1.23557516899757
  H   1.18951303803795     -2.31623094646307     -2.43475300743150
  H   -0.25953365158779     -2.49231163121817      0.07373990079361
  H   -0.75044906893608     -1.89618174951627     -1.35457325562100
  S   0.59098628594423      0.76600642505038      4.65248102609998
  C   0.44383829293447      0.17908618572897      3.23173378448783
  N   0.31699987136302     -0.33994079806601      2.13493399127896
  S   2.74058390031908      0.58947051750473     -3.50240119342526
  C   1.47005754583622      0.70691562204996     -2.62744107135046
  N   0.44840419873839      0.81976600378815     -1.96469552111297
