60
Coordinates from ORCA-job orca E -2332.539752745365
  Ho  0.00163000755916      0.22826873636214     -0.09463445109329
  N   -1.05906052130070      0.43577459114882      2.26778960758020
  C   -2.07900840426749     -0.59013478468795      2.53184976309535
  C   -1.59936481414965     -1.94149671187196      2.01875472518933
  N   -1.20222552887730     -1.91256254175994      0.61020583811238
  C   -2.25325865805842     -2.25327301169014     -0.35006375848740
  C   -3.24687395208417     -1.11460899185928     -0.53671803773308
  N   -2.53093730085473      0.14763512124638     -0.76128548338800
  H   -1.46391664118187      1.36062569367563      2.38977430463766
  H   -0.29971440785845      0.35340426852981      2.93471898993094
  H   -2.31737136995628     -0.67451416165060      3.59619453412519
  H   -2.98799455947123     -0.27500940507799      2.02578591692917
  H   -0.71670213360370     -2.23995403782878      2.59060037231508
  H   -2.37224781533908     -2.69719709048559      2.20530189266221
  H   -0.41808183649799     -2.56225054772280      0.50487007210698
  H   -1.75692513676809     -2.44842670107628     -1.30025461229727
  H   -2.79519054446713     -3.15953125040793     -0.05203269797652
  H   -3.92319542363158     -1.36651648929207     -1.35855623841360
  H   -3.86916353965198     -1.00401104793093      0.35093279685308
  H   -2.20912495945226      0.19411299938566     -1.72375132008495
  H   -3.12940131446176      0.94538622702366     -0.58346554910449
  C   6.26589938454051     -2.94881524876614      0.09353396552919
  C   5.39475335115949     -4.02284625959295      0.22102154378539
  C   4.03787141190250     -3.79965886778697      0.39570737005288
  C   3.54353467599744     -2.50127119433705      0.44515979028560
  C   4.41928696344497     -1.42908631772507      0.31525032115575
  C   5.77733254886951     -1.65031615036962      0.14046886866152
  C   2.06280785620130     -2.27792848166899      0.62468826253486
  O   1.68773874335568     -1.04848555517865      0.68655092362045
  O   1.31235279664903     -3.25111677002000      0.70652814741817
  H   7.32483315834513     -3.12372581023879     -0.04395858023926
  H   5.77507660298172     -5.03493862886890      0.18238083351536
  H   3.34015320927894     -4.61951726857974      0.49354712817805
  H   4.02159256309023     -0.42364740648825      0.34924471661941
  H   6.45484353930151     -0.81262782370538      0.03884169490054
  C   2.25612430183277      3.76598561051913      2.70586877395856
  C   1.47925574601927      3.04665232120220      1.80791070999908
  N   1.59237065641967      1.72292968565258      1.69421100610476
  C   2.48921297219252      1.13341926532995      2.48704892806355
  C   3.25738622165559      1.86469886392020      3.38144050962316
  N   3.14840314421985      3.18381880773303      3.49871624258590
  H   2.14921110365064      4.84052163655148      2.78397850275084
  H   0.75375544163826      3.52550315199691      1.16256620283162
  H   2.59049501313681      0.06140684388773      2.38536626480311
  H   3.98037380536697      1.36780525797396      4.01615289490849
  C   1.69259233893195     -2.00830565842684     -2.79232333657666
  C   0.50355347225677     -1.12390444673678     -3.14420812333003
  O   -0.12853457541986     -0.61331583559941     -2.01843114378287
  H   2.16514366357797     -2.41419942962649     -3.68912007504749
  H   1.37204956406244     -2.83959962702388     -2.16235836601218
  H   2.44519611905160     -1.44374472702641     -2.23614177878652
  H   -0.20453878719284     -1.70735207753864     -3.75104034110107
  H   0.84643387157323     -0.30722465175662     -3.80333439062882
  N   -0.75439449845711      2.51373873559875     -0.26037592081674
  N   -1.72321990055488      2.75970856113427      0.38663833098355
  N   -2.65512390420957      2.96806836910379      1.02513910171720
  N   1.81469607211304      1.49658282764662     -1.35248993177806
  H   2.75260194400459      1.54718243605954     -0.97613308729738
  H   1.44732496387654      2.43929990445612     -1.42843660351115
  H   1.86918329950989      1.10568509426588     -2.28582602063806
