4
Coordinates from ORCA-job orca E -3201.268758000866
  Cm  -0.25972732606401      0.02888662200907      1.26143585704155
  Ga  -0.13479991562275     -0.37245000783598     -1.73432399433554
  S   -1.28563794014801      1.35342074340622     -0.57255467077033
  Sb  2.27665518183476     -0.18796735757930     -0.39115719193568
