36
Coordinates from ORCA-job orca E -2198.645995558660
  Ho  -0.75333601641329     -0.25834639402689      0.15349454092174
  N   0.33610913281961      1.96891208466199     -0.40101380240200
  C   1.80039113168116      2.03290003005624     -0.28481042566136
  C   2.38160579417524      0.63807253898745     -0.44505106835410
  N   1.75106572886121     -0.33143416455349      0.46336181075272
  C   2.17936514926350     -0.25619908623044      1.87097312999000
  C   1.24539653810578      0.56800818012016      2.74774824934716
  N   -0.13572811406843      0.07795994213044      2.61232626672978
  H   0.06485977912315      1.89058515602297     -1.37759376933875
  H   -0.11369458600287      2.79751736395854     -0.03231852987773
  H   2.05055318399836      2.43826555048954      0.69501942187295
  H   2.25198444296686      2.69756799408771     -1.02510668489760
  H   3.46647461152065      0.67414762002208     -0.29916435166451
  H   2.19150809084209      0.28698003250208     -1.46084917103601
  H   1.99777094796605     -1.26658520709152      0.13914355099864
  H   3.19782913995424      0.13704078473469      1.95366761379249
  H   2.20114193973440     -1.28103421120530      2.24711618868055
  H   1.25043775342593      1.61667137711072      2.45251085859293
  H   1.60502670720408      0.52194509333915      3.77909997944492
  H   -0.77643629497469      0.66143708185744      3.13749131189309
  H   -0.21733266295468     -0.86543736874549      2.98305922827438
  C   0.00483216124661     -2.48925260811029     -3.05309747382581
  C   -0.33268962023283     -1.01055420267168     -3.13296618389422
  O   -0.53630485035076     -0.46462052974857     -1.86228060016953
  H   0.16516281253807     -2.90889835979304     -4.04756884883507
  H   -0.80809122910899     -3.03489837073812     -2.57264674378235
  H   0.90802739764104     -2.64733845133740     -2.46130734215651
  H   -1.23117869003268     -0.86777531109370     -3.74383968364343
  H   0.48072622906298     -0.47534336916731     -3.64313874966171
  N   -3.25845971239920      0.74043115134460      0.94590652283235
  O   -2.27892141983778      1.49730666387451      0.60820095395155
  O   -3.01311385325651     -0.50615989175439      0.88008304791987
  O   -4.31024533313265      1.17956758267782      1.30239324649024
  S   -0.77641015176602     -2.92838424335264      1.02835815642224
  C   0.81681696008898     -3.21005152126055      0.60400899398182
  N   1.93425690231130     -3.34070293709727      0.31519035631129
