19
Coordinates from ORCA-job orca E -2145.985804138335
  Er  0.47446871978875     -0.39755268125042      0.20075609628934
  N   -1.10870850143972      1.86825670242122     -0.18927689956609
  O   -1.78362170136572      2.83585331303060     -0.37983927505528
  O   0.14025488811256      1.94210409747502      0.06131254246048
  O   -1.58929723950164      0.68166377554616     -0.22230928848513
  N   -0.14304024358743      0.15558675600299      2.54358288237711
  H   -1.11655991109195      0.11932612505980      2.82231327549877
  H   0.21169276077423      1.06360408899693      2.82438608510908
  H   0.36997423817058     -0.55217134243556      3.06234724440091
  N   0.73170308278760     -0.00351073292171     -2.22935928459477
  H   1.48246406489423      0.66998301181540     -2.34306683354703
  H   -0.02183485756997      0.26596348138518     -2.84958036662139
  H   1.10064783426474     -0.90562669726518     -2.51892481087075
  C   -1.62502802303599     -3.36321357480062      0.31982209654985
  O   -1.36897690343233     -2.26741578159108      0.41391658764337
  O   1.48152763070450     -2.30202256676345     -0.74573953335921
  S   2.50225163912867     -1.99844202513601      0.37722786416397
  O   2.70969571579224     -0.46294387656459      0.14790448199415
  O   1.53788680660666     -1.94204207300467      1.58782713561260
