34
Coordinates from ORCA-job orca E -3936.524742606347
  Pr  0.97561422961618     -1.35797107549927      0.56288452833569
  N   3.18883460199760     -1.96581972970217      3.08331313361424
  O   3.01895232303032     -2.15340871361576      4.16799067706831
  O   1.74533164552561     -1.77791310873241      2.33237894931751
  C   -0.13671993811041      1.93351917926462      0.86052603205728
  C   0.54753536359069      2.71638024160016      1.98278082062647
  C   0.41274418566720      1.80813362542009      3.22513256177937
  C   -0.53991074716669      0.71415014972252      2.77549809634336
  O   -0.25517311244041      0.57229060569120      1.35780048726998
  H   0.42530751667410      1.89761348371127     -0.06834145046068
  H   -1.14757827064544      2.29358546361414      0.66485004533297
  H   0.06237323923274      3.67851718639254      2.12591644775460
  H   1.59283862732726      2.89954612394464      1.74846631145638
  H   0.03370484477522      2.33825570158268      4.09500785678877
  H   1.37728093047678      1.37569362121108      3.48675136476325
  H   -1.58742064974846      1.00284783893557      2.87462338536607
  H   -0.38541644033098     -0.25294055645651      3.24681971078502
  O   -0.67876268925082     -2.45670646506930      0.78553588147274
  H   -0.68507591619995     -3.40256946689578      0.99089633421622
  Br  2.97223130770659      0.33478579752089      0.24958429935005
  C   0.85987126540202     -0.63691690551905     -2.74836482517655
  C   -0.18380489139787     -0.82133736265920     -3.83124382953603
  C   -1.38946856222671     -0.07768738877445     -3.25763879863271
  C   -1.34172362501505     -0.46900619813137     -1.79447268996506
  O   0.08674937393164     -0.59406263910266     -1.49822729970180
  H   1.38824539653310      0.31221886760642     -2.82849973772072
  H   1.57437661898711     -1.45196415488842     -2.66544342539232
  H   -0.41300658508523     -1.87856634684979     -3.96391277818809
  H   0.15170738865879     -0.42027989879319     -4.78415539671090
  H   -2.32993712244150     -0.36660564486966     -3.71991489088026
  H   -1.26592514462480      0.99959925344185     -3.37020504555524
  H   -1.80557811980601     -1.43662988117224     -1.60594786135703
  H   -1.75288637805976      0.27140785136267     -1.11229282078818
  F   1.91058933341707     -2.76585945429110     -0.51349607363278
