6
Coordinates from ORCA-job orca E -756.513632569120
  Cf  0.87454920985714      1.51308135461252     -0.01120364704857
  Li  -0.39268283947536     -0.77219627695010      1.76970144530797
  Li  -1.69602668841904     -0.02726684996181     -0.96511214028151
  Li  1.04726740811005     -1.57703406394124     -0.59067110138320
  H   1.16269828433711     -0.66235122065893      0.93087281136485
  H   -0.99579537440992      1.52576705689958     -1.13357736795957
