36
Coordinates from ORCA-job orca E -2054.467374378547
  Sm  0.27907047306291     -0.52452907096667     -0.35696355050292
  C   0.81297520940810     -0.34614531580069      3.00139702270102
  C   -0.10484091112188      0.33331672913363      2.00838920387237
  O   0.41308400221549      1.22837140260984      1.27330870700931
  O   -1.11733455666453     -0.30749300072441      1.61891191348196
  N   1.49746189463968     -1.25172603822387      2.02874002353699
  H   0.27128110551557     -0.89914197183236      3.76150231005793
  H   1.51455941187567      0.34751071925250      3.45253805888180
  H   1.27689605152961     -2.22116012358332      2.22109980678472
  H   2.50392463406313     -1.16208352714456      2.08274260248217
  N   -1.97204861513997     -1.57302976393949     -0.89667136059343
  H   -2.59515504692533     -1.38570148338680     -0.11689379368038
  H   -1.90660690217421     -2.58184028472995     -0.99336964486499
  H   -2.41523623498119     -1.21565066211880     -1.73831265378212
  C   -2.80893366310667      0.58674853501481     -4.73884600680925
  O   -2.02822978614484      0.21938786135746     -3.57768307696231
  P   -0.57454277531296      0.87734397880517     -3.34404404923612
  O   -0.69153591402066      1.29840941060343     -1.74758991142247
  C   -1.13615112116034      2.63507561751598     -1.40304986547104
  O   0.25834355504539     -0.47289526723266     -2.86422016710465
  C   0.66968733442820     -1.41199130567906     -3.88645177766191
  H   -3.72249504570219      1.06572652292904     -4.39972294425457
  H   -3.04536541697874     -0.32050533326725     -5.28614352714857
  H   -2.25172924989291      1.26853079361132     -5.38051992667704
  H   -2.21627925859548      2.69658600030253     -1.51130435712891
  H   -0.64543213944602      3.36239104676048     -2.04718551449810
  H   -0.85119735976219      2.79662892479317     -0.36891491011682
  H   1.51685241744408     -1.96236556540613     -3.49246874439157
  H   0.97162278293390     -0.87247153379978     -4.78323323055359
  H   -0.15281490414516     -2.08694999512936     -4.11023075727028
  N   1.93901441884033     -2.84762463911141     -0.90100109346443
  O   2.37357446180944     -1.66928860945113     -0.92615384481748
  O   0.70671742028093     -2.90168183533617     -0.65279153631201
  N   2.29580638387626      1.14868122225333     -0.86665004226462
  N   3.22419839795984      1.19304950478278     -0.12947032607191
  N   4.12665894634679      1.24441705713851      0.58005696425385
