5
Coordinates from ORCA-job orca E -1297.222597995811
  Bk  -0.13560151107995      0.61360368965030      0.38883172205825
  C   1.08701480331631     -0.78356512374121     -0.57972883097531
  Na  0.37695466542133     -2.59273246274599      0.94674517148703
  Be  0.39989143391449     -1.16359783252957     -1.98806200492964
  S   -1.03376939157218     -0.72074827063352      2.30427394235968
