6
Coordinates from ORCA-job orca E -906.019999681714
  Th  0.03872790652893      0.07012966749242      0.00065513995846
  F   0.37063500678096      0.33831223613931      2.07074057698350
  F   0.11866690667409      0.49332829622438     -2.06896898714596
  F   -1.01168451105289     -1.74481467063578     -0.00144511157873
  F   2.03385148457696     -0.61329069100539      0.14632469564229
  F   -1.55018679350805      1.45633516178505     -0.14729631385955
