34
Coordinates from ORCA-job orca E -4673.646566288221
  Dy  -0.56276850980058     -0.70673352309249     -0.35975634535941
  C   1.63539677906014      1.05931436254521      1.53192730044237
  C   0.22819250899079      1.65804827581296      1.70209603375654
  O   0.10614939210517      2.71618583623887      2.30308533630794
  O   -0.71794736126808      0.94594907276622      1.20353293421896
  N   1.71747135068615      0.21967256254928      0.33558751285062
  H   1.80986537265816      0.43611221269799      2.41095728694230
  H   2.36747590050913      1.86744659912552      1.54896003275008
  H   2.34348079963023     -0.56836274117951      0.44164517288608
  H   2.04113809222387      0.72669236579429     -0.47916461917739
  N   -2.51237915791435     -1.25468230308169      1.18946823545286
  H   -2.62570165958440     -0.48373588066093      1.83460982296408
  H   -2.21275633817990     -2.08440890100497      1.68451130537839
  H   -3.37534303060370     -1.42345711737792      0.69065063813645
  C   1.16882511644831     -3.20526267677432      0.76794374541888
  O   0.01750057538645     -2.42910852484688      0.69014176149064
  H   1.76061993369703     -3.17510182641696     -0.15670374127438
  H   0.92408148332003     -4.25901521873345      0.95938556873940
  H   1.82463089126643     -2.88093604491702      1.59269092548233
  C   -1.83323052171710      3.07657524571081     -1.12182852382216
  P   -0.49117023612470      2.02111947011630     -1.77742296865571
  C   0.94985314025251      3.14028352659525     -1.55431511575226
  C   -0.75392108218498      2.13650606620921     -3.57961933189846
  H   -1.85213635763817      4.05886213276500     -1.59925988255748
  H   -1.69212888267103      3.18888930605028     -0.04625177544954
  H   -2.78236034077175      2.56783159218644     -1.29164789148067
  H   0.78613015033558      4.10954428242921     -2.03023342051734
  H   1.83781013481716      2.68072815740449     -1.99237411796682
  H   1.12122547949269      3.30360613237306     -0.48861783731263
  H   0.06628205766338      1.62962438456039     -4.08763834727893
  H   -0.81916434644741      3.17416293439527     -3.91444469805429
  H   -1.67465276620197      1.60693911816532     -3.82264248314942
  Br  -2.87456603782811     -0.69159308296072     -2.04981763326541
  I   1.43379747039306     -1.24419579544473     -2.74345488024551
