4
Coordinates from ORCA-job orca E -750.218963827085
  Am  -0.25628525881473      0.32163603178784     -0.26478129592166
  H   -0.30967461293760     -1.28704023851614     -1.47846413081423
  N   -0.60389550795786      1.95381173903074      0.36986262277843
  F   1.76634537971019     -0.16651753230243     -0.06321719604253
