4
Coordinates from ORCA-job orca E -6183.699157936675
  Cm  -0.01824755927283     -0.02402663694615      0.05410098379743
  S   -0.93302105642377     -1.35592299782726     -1.88588104727731
  Br  -1.14826227202071      2.45526845135238      0.19699551980379
  Br  2.69602088771731     -0.25342881657897      0.19818454367609
