5
Coordinates from ORCA-job orca E -11120.641221296219
  Tb  0.14541490338628     -0.92992123402762      0.21140438860444
  Br  2.09747239136040      0.75730789269520      0.09913328403899
  Br  1.03061836402973     -3.26446378898199      0.87219815696913
  Br  -1.01618447445752     -1.06813349387936     -2.09119922484880
  Br  -1.56283118431889     -0.14182937580623      1.98052339523624
