21
Coordinates from ORCA-job orca E -843.669666266706
  La  -0.11475171968952      0.19427731692210      1.05622747547497
  C   2.34416309454269     -1.96486980039908     -0.42725164383391
  C   2.58641993311857     -1.88104699082420      1.09405826528848
  O   3.53494084750427     -2.49998777136867      1.54798730666742
  O   1.76824692954181     -1.12756175736194      1.73781449590769
  N   1.01140448123966     -1.50025141570728     -0.81426430413692
  H   2.56849243496846     -2.98391722498378     -0.74739580264160
  H   3.08594459167560     -1.31113606599963     -0.88846649029137
  H   0.30881334281612     -2.22340258211872     -0.71833420948846
  H   0.98281804246706     -1.16835495306696     -1.76770652032119
  I   -1.23261591421925      1.68465871015425      3.67298262633720
  C   0.63663733460217      2.78471829042126     -1.33711733201930
  O   0.38830212614107      1.78951708879642     -0.41315801395125
  H   0.61797874685314      2.40640430267793     -2.37112680964750
  H   1.62217084674176      3.24939734368552     -1.18825939707220
  H   -0.10612743860269      3.59320419665509     -1.28277324025207
  C   -2.96532445459113     -1.74518182551101     -0.01134770722028
  O   -1.80137640796755     -1.10979148048512      0.37463913147052
  H   -3.73989421614458     -1.03482126594377     -0.33384144572360
  H   -3.40027729459387     -2.33956757685618      0.80449920764859
  H   -2.80176530640379     -2.43658653868615     -0.85386559219525
