38
Coordinates from ORCA-job orca E -2570.183511702303
  Er  -0.33437806361158      0.17671727191241      0.10716926795854
  C   2.66946509971994      0.36371646549087      1.50620830672060
  C   1.65793123458924      1.01842727767861      2.47052189447683
  O   2.11224347693391      1.55711307716409      3.47966315636241
  O   0.43769011723883      0.96311273867524      2.10527906194430
  N   2.02752435145672     -0.51259726030670      0.52788104472575
  H   3.42737616399724     -0.14639055286179      2.10367444748191
  H   3.15684665467452      1.18864477178002      0.98532248850667
  H   2.08877350691339     -1.49439571692238      0.77298755256112
  H   2.37635265565383     -0.40902385048994     -0.41587504303376
  N   0.17253279840443      2.87082607043690     -0.91052397677835
  O   -0.96256057460589      2.35439087094168     -0.73931361128356
  O   1.11020550475736      2.12464086544845     -0.57279388764588
  S   -0.84973768182159     -2.46903524738510      1.31879557312024
  C   0.56978659423002     -3.30039270665210      1.03943814727453
  N   1.57559619349407     -3.86319219578218      0.87160374199561
  C   -0.59844939231307     -2.58916630266507     -2.74936978584793
  C   -0.19339433486206     -1.12299882190661     -2.88929143146842
  O   0.37530983909046     -0.63779254549362     -1.73159239018309
  H   -1.01820611902196     -2.98027399657731     -3.68427721582409
  H   -1.34170882082195     -2.68720891364772     -1.95686916484748
  H   0.26832355827027     -3.19105920697948     -2.46847228100244
  H   -1.08900369698779     -0.54676899297052     -3.17893596146906
  H   0.51345065400473     -1.03521668583973     -3.73761929697569
  C   -7.40034161064892     -0.19368255480529      0.25799701726227
  C   -6.68685130122539      0.18398345879754      1.38875513699031
  C   -5.30122085765042      0.24810351910443      1.34677778967349
  C   -4.62340557513550     -0.06425459457134      0.17532040943841
  C   -5.33782424496509     -0.44282878407335     -0.95417245783608
  C   -6.72339047358422     -0.50726426307457     -0.91410911439131
  C   -3.11348954545428      0.00195487773135      0.13114765446763
  O   -2.53254292219429     -0.29495804890630     -0.93881982800405
  O   -2.50537410527563      0.34965593927817      1.17489645048802
  H   -8.48235490282636     -0.24514433466598      0.29060540159533
  H   -7.21267283334106      0.42688751416583      2.30427419723563
  H   -4.71523723414250      0.53567141972505      2.20926282655130
  H   -4.77955527618272     -0.68319993617793     -1.84901595229013
  H   -7.27767311237226     -0.80414748525678     -1.79640947736124
