7
Coordinates from ORCA-job orca E -3585.658363874908
  Tb  -0.00306842327548     -0.19958207193489     -0.19779218320073
  Cl  0.73465807485253     -0.09432096079313      2.37927318068738
  Cl  0.38210096307574     -0.15989782903027     -2.61528951879510
  Cl  -0.44264522298360     -2.60596121331416     -0.08469146083455
  Cl  -0.68655137381280      2.39218215568485     -0.13758075336825
  Cl  -2.45827508778584      0.52542363775924      0.18752821593626
  Cl  2.47379106992947      0.14214628162838      0.46854251957497
