32
Coordinates from ORCA-job orca E -2294.602982284953
  Gd  -0.57016129461305     -0.84258586754638     -0.27351507541692
  C   2.47464551264659     -3.93062708578342     -1.72457382830077
  C   2.00445552401913     -2.74508995327781     -0.93534189689250
  C   2.90130496137700     -2.05543785716935     -0.10982664141390
  C   2.56395557864225     -0.93972431009796      0.65831123667918
  O   1.40463604407207     -0.41127984191963      0.70497857470904
  C   3.60979118896820     -0.27900989479426      1.50901112864839
  O   0.78057470789649     -2.43525676251493     -1.07402527726648
  H   3.52407830589419     -4.15425628669899     -1.55620906014178
  H   2.30621747752395     -3.73408857586313     -2.78344147785994
  H   1.86601167617220     -4.79399626576539     -1.45636713204444
  H   3.91932260023878     -2.40849864625620     -0.06553541338767
  H   4.57661933383180     -0.76864136699620      1.43688101037970
  H   3.27318764444306     -0.28408367551629      2.54578502949319
  H   3.70448161186969      0.76332429270512      1.20394701669610
  C   -0.47640522449463      2.20947392587752      1.10536588144084
  C   -1.54418178336162      3.25889118847400      0.86752583258676
  C   -2.72403527113522      2.69110135190661      1.65486794241016
  C   -2.62624066054592      1.20682739860457      1.35301437982707
  O   -1.19990150180512      0.95267043867095      1.17209622239629
  H   0.04144305348481      2.34718677658888      2.05528845401618
  H   0.25621547398065      2.14068589683059      0.30343229403951
  H   -1.78256644561362      3.30838272036061     -0.19526371390811
  H   -1.23278993449536      4.24478525851950      1.20601800752807
  H   -3.68352929058597      3.10124387831997      1.34858266487473
  H   -2.59590046163362      2.87264096555545      2.72262872389603
  H   -3.13671513789822      0.95360103934794      0.42172874434312
  H   -2.98352710837949      0.55714424887850      2.14763749848348
  Cl  -1.12156514970705      0.67039771341323     -2.22004556106835
  S   -4.40019078968078     -2.30135264863776      2.43559179500977
  C   -3.15991351351730     -2.14593233376212      1.44076049387130
  N   -2.24101712759388     -2.00979572145354      0.70759214637174
