25
Coordinates from ORCA-job orca E -1714.269221450098
  Tm  0.10729562639005      0.44951926818006      0.50946150029346
  C   3.31697691596105      0.11514013733157      0.68571126836660
  C   2.09805254665979     -0.45041227210724      1.36220391272886
  O   1.48556433063867      0.28792090684010      2.19518264234228
  O   1.38449308156756     -1.26196694960259      0.67739085435280
  N   2.53785463501990      1.02825784959249     -0.25186314421647
  H   3.88261000986195     -0.62723091663256      0.13440960941390
  H   3.94943794582029      0.68529577291818      1.35650372010380
  H   2.77920075526761      0.79538982010350     -1.21154058934978
  H   2.85325212950567      1.98515266839319     -0.11697668627155
  C   -1.93964380505871     -1.83328611008500     -0.43509370345229
  C   -3.23280271865461     -2.37914291680222      0.11810483626505
  C   -4.12794133663480     -1.14127245658565      0.15346624915219
  C   -3.20296952414579     -0.06327893123455      0.67599408766379
  O   -1.84238360539432     -0.45643271832456      0.17282280176189
  H   -1.97129217406289     -1.69185244595801     -1.51325841471314
  H   -1.04708933375964     -2.38027677607962     -0.13577186245790
  H   -3.08345157230350     -2.79059207813224      1.11582259261386
  H   -3.62996417362730     -3.16376776031956     -0.52162052581128
  H   -4.98854650570869     -1.26433328454154      0.80642912985974
  H   -4.48668668118956     -0.89052605700901     -0.84380664543026
  H   -3.14111773528297     -0.06114783961452      1.76275289112046
  H   -3.41173764055747      0.93169149524822      0.29125035325223
  C   -0.63457233499265      2.41589112904357      2.10701481450613
  O   -0.88263883531960      3.19366046537803      2.86151030790557
