5
Coordinates from ORCA-job orca E -2665.352741915104
  Tb  0.13895077296081     -0.92846242588696      0.21458524208596
  Cl  1.98263200594306      0.64860881861845      0.10585877859083
  Cl  0.98449486488108     -3.12107078359970      0.82767870187793
  Cl  -0.94512944475545     -1.06148428043418     -1.95453081669717
  Cl  -1.46645819902952     -0.18463132869760      1.87846809414246
