4
Coordinates from ORCA-job orca E -949.712027354618
  Ho  0.24336296415921      0.33731894919028     -0.59047907263712
  H   -0.79280099892806     -1.13274580848811     -1.38215771864318
  H   -0.79927296051329      1.76863788098908      0.26249857123417
  H   1.94520099528216     -0.15132102169125      0.27353822004612
