4
Coordinates from ORCA-job orca E -1740.138522189263
  Eu  0.91732654658712      0.59445120286749      1.09185179714263
  Ca  -0.17615706577280     -0.93199847402242     -1.87018955229930
  I   -1.17790305381176      1.97768184588942     -0.61059893670277
  N   1.03322357299743     -0.81824457473450     -0.04766330814057
