4
Coordinates from ORCA-job orca E -523.527515287105
  U   -0.54708213843298     -0.25924845122148      1.00131150258291
  Li  0.55682225946899     -1.36813440264875     -1.78390391030714
  Be  0.21221390741647      1.98740079938997      0.10877449501105
  B   0.37453597154753      0.46187205448026     -0.76278208728681
