13
Coordinates from ORCA-job orca E -4499.032414265914
  Gd  -0.12369645639086      0.04481033998664      0.95370515615105
  C   2.23386378234978      0.54525687946758      0.18057914614700
  N   3.31625046375344      0.78020100785533     -0.16417360563134
  Cl  -0.23606335393996      2.43449185627581      2.09156484032989
  C   -2.41084601882856      1.65809991762899     -0.76421674307054
  O   -1.59432971551037      0.60098197666192     -0.40537271975296
  H   -2.20043072330944      2.55990523152751     -0.17363926700564
  H   -3.47548219314701      1.41340006075501     -0.62242277144441
  H   -2.28473996177543      1.92074805475452     -1.82630101692722
  S   0.50192915631503     -4.50117058054431     -1.60016785098677
  C   0.33127455946205     -3.09786930901317     -0.76637269712845
  N   0.20851984630889     -2.09931398887067     -0.17456005277664
  Br  -0.97914938528755     -1.34634144648515      3.27137758209605
