57
Coordinates from ORCA-job orca E -3703.839962654629
  Lu  1.00961752214773     -0.40830744873038     -0.14644296145065
  N   2.58318208665462      0.91715166174370      1.00530891960779
  C   3.84936068223286      1.01013855207546      0.55286173677642
  C   4.79483890904737      1.85481400521226      1.06516426492030
  C   4.39713264002477      2.69088195641303      2.12900523881666
  C   3.12421933940288      2.63759031895139      2.60155996425780
  C   2.17354721246823      1.72156354392347      2.03987421525471
  C   0.85765552448483      1.63541604659463      2.50100815478278
  C   0.32077870962861      2.40019614938564      3.56972601145178
  C   -1.01733278445571      2.47799644535807      3.77999258588151
  C   -1.87513735415559      1.85678623440424      2.80441765430369
  C   -1.38581416571219      1.01063154070969      1.89192632643542
  N   0.00445733024343      0.59904975359981      1.93777477232687
  H   4.08322884432595      0.35502923441186     -0.27697839583838
  H   5.79565653472180      1.87234004108449      0.66119366695323
  H   5.10278537929695      3.38455505362271      2.57072044607522
  H   2.81880835542358      3.29254726639643      3.40244248323124
  H   0.99353967080628      2.95204685599696      4.21363176021796
  H   -1.43092919032194      3.05659288382845      4.59293709920351
  H   -2.92825188024674      2.10581337050401      2.76159538890065
  H   -1.98428200180085      0.54275348194005      1.12665717890032
  S   -3.08190562440573     -0.23240707784998     -3.01028614859622
  C   -1.94010884848540     -0.26235536669214     -1.86268455360734
  N   -1.10097182494479     -0.28515028300577     -1.04215494086143
  C   -0.21348199756030     -3.47685684587148     -2.63913577147825
  P   0.18795830773199     -3.09277308208365     -0.89820267849877
  C   -1.35655188064340     -3.53609018008414     -0.03672675649146
  C   1.30421909021631     -4.46312652692733     -0.43848938689751
  H   -0.59417458789681     -4.49458971349139     -2.74547698940975
  H   0.68284843718164     -3.36593614476921     -3.24994931863656
  H   -0.96959043579339     -2.77602619316897     -2.99604381334492
  H   -1.62601504396511     -4.57878604883528     -0.21614705304422
  H   -2.15686668693650     -2.88923377576171     -0.39590048524673
  H   -1.23759320536721     -3.35819776070743      1.03205490624130
  H   0.84484877714264     -5.43631703454970     -0.62156201184450
  H   1.54756290576561     -4.36922808261350      0.61964066178291
  H   2.22535951355146     -4.38619342210286     -1.01688390261538
  N   2.56773549517644     -0.91501404272196     -1.65999979610699
  N   2.97724313130364     -1.79799097291336     -2.34862826759180
  N   3.37927340485371     -2.63214620446950     -3.01580376469528
  O   -1.11950441287360     -1.52426818578036      2.91721345174532
  S   0.19939115605833     -0.97490507644623      2.75462170288978
  O   0.94158607810105     -1.68376321500693      1.64866423683133
  O   1.01981882534635     -0.79607472577328      3.91410414927197
  C   0.34036240760565      2.80755579252084     -0.75718984606471
  C   0.08125896455161      3.72851418104055     -1.93571711343382
  C   -0.22029678495534      2.72940369446100     -3.05181298598163
  C   0.78189060992946      1.62351039251753     -2.76751843826267
  O   0.96273152294348      1.63414395622908     -1.33279030697376
  H   -0.58927827729677      2.50583323705239     -0.26966887204067
  H   1.01876317029920      3.20548536813003     -0.00566121339516
  H   0.97499549526553      4.31012918339758     -2.16977659257666
  H   -0.73918588676416      4.41596447517991     -1.73865276276448
  H   -0.09688775567668      3.14366793727992     -4.05107399244790
  H   -1.23662480685559      2.34419710778609     -2.95934314966781
  H   1.75571105209599      1.81191537042104     -3.22226757713297
  H   0.43391835108355      0.63742231818408     -3.06842713006214
