29
Coordinates from ORCA-job orca E -2557.517132363851
  Lu  -0.05043874512478      0.16257998253488      0.88136665491667
  N   0.52305684396263     -1.89626107121157     -0.06917843274741
  C   -0.38808129787214     -2.84664219839028     -0.31340951451022
  C   -0.04649916339338     -4.12691489798041     -0.69930403282256
  C   1.29709908221818     -4.43215194141367     -0.83002838367413
  C   2.24638804822205     -3.45348325011064     -0.57828266770184
  C   1.83265194429697     -2.18795934077245     -0.20117237079138
  C   2.78404036311384     -1.07767306257734      0.08247973741632
  C   4.14521678504114     -1.17516329510470     -0.13919873416234
  C   4.95678048160451     -0.08577041281383      0.14512307415796
  C   4.39097600778499      1.07662827841672      0.63686144220686
  C   3.02281907308669      1.10790965692692      0.82582482954893
  N   2.23830867286656      0.05724909142230      0.56030598356798
  H   -1.42689091190014     -2.56560377565000     -0.19396270200116
  H   -0.81671975104980     -4.86002912760321     -0.88417855594302
  H   1.60883553183002     -5.42501301433419     -1.12230811447247
  H   3.29503724324958     -3.68776110810494     -0.66813064390889
  H   4.57979088594342     -2.07855188222029     -0.53650557212402
  H   6.02254454670021     -0.14836422458133     -0.02402889667907
  H   4.98738395267381      1.94675923793637      0.86472779183528
  H   2.53040734155340      2.00060534999443      1.19029637742279
  F   -1.30867776728333      0.48345607542531     -2.57211652301554
  P   -2.56172923141939      0.82946712980298     -1.70813537633985
  F   -1.95218589053247     -0.00745678126246     -0.33484454689404
  F   -3.44890030644226     -0.38123220373560     -2.13106173374792
  C   -0.14783740239239      2.26846129447552     -0.06875689983228
  N   -0.50573480918403      3.03534013204931     -0.85784419275547
  C   -0.39334004749683     -0.58790822940651      4.05122927782179
  N   -0.36890148005736     -0.17611641171114      2.94853272522901
