24
Coordinates from ORCA-job orca E -1017.124157130195
  La  -0.43909234973948     -0.32327927953037     -0.38153936822240
  N   1.90666331868463      1.19156152483472      0.70678614634718
  O   0.70628437438533      1.56589798047696      0.90976118548856
  O   2.03026840278465      0.14533003859960     -0.02458896611281
  O   2.84925828096729      1.76488544113296      1.16111621004713
  C   -3.96030822122365      3.80412553683063      0.14016161941200
  C   -3.32268071931143      3.28376630042337      1.25517184540378
  C   -2.45015950147625      2.22529585095492      1.08483447429023
  N   -2.19755224335245      1.68325474291902     -0.11038026663399
  C   -2.81599374955764      2.18726734134172     -1.18369529898211
  C   -3.70296370641539      3.24622733752511     -1.10101842192072
  H   -4.64820724657270      4.63285473862009      0.23836743626203
  H   -3.49371435055460      3.68678644800604      2.24230683956579
  H   -1.93347047385449      1.79035819091325      1.93050950454904
  H   -2.57909104004060      1.71189695869935     -2.12717636361552
  H   -4.17783835764428      3.61980609951163     -1.99622861191787
  O   1.18668118012721     -2.31000804402888     -1.02266575388651
  H   0.97036277100465     -3.14929853775423     -0.60405166051713
  H   2.11913874806228     -2.13932677485933     -0.85681973502012
  F   -1.16679153070531     -0.04858248011210     -2.40774518278987
  N   -1.78175332032790     -2.14712232428367      1.58535839096476
  O   -2.27716700867671     -2.88105000539183      2.38525433587364
  O   -1.01022496641860     -2.57166554672332      0.65372188279072
  O   -1.97494829014437     -0.88818153810577      1.59045975862415
