28
Coordinates from ORCA-job orca E -1266.600603856413
  Eu  -0.31344833372844      0.04542741443713      0.87663750959101
  C   4.05102908681370     -0.88222802022979      1.20769438914124
  C   2.74393532130420     -0.39257249777236      1.71219804855905
  C   2.57982203433729      0.03706837847730      3.02455051665821
  C   1.37359395134959      0.48033817916735      3.56420590230974
  O   0.28576824515386      0.53987106409490      2.85267072641040
  C   1.25537591040037      0.90387289409261      4.98139286300653
  O   1.76092206214195     -0.39238644220751      0.85187835288467
  H   4.82382363935155     -0.84257743672857      1.96786529906721
  H   4.35079855978060     -0.28478563438982      0.34546362891303
  H   3.93562831638634     -1.90938622966413      0.85725717351441
  H   3.44084682238629      0.01099172160796      3.67284619683695
  H   2.19877692543174      0.83494457090862      5.51211150181831
  H   0.50876499710793      0.28125319106418      5.47748868132733
  H   0.88552097815898      1.92981780500669      5.01870170119796
  C   -1.57186612327538     -1.65429235809612     -1.24371513555578
  C   -2.78855076855363     -1.73022893940053     -0.35035817273319
  O   -2.49053969814578     -0.93669769017373      0.85168059819848
  H   -1.73588927352835     -2.22684500676553     -2.15511302934703
  H   -0.68432878875966     -2.11177783727615     -0.78195329274648
  H   -1.36943290794865     -0.62883685149306     -1.58526727765636
  H   -2.99245599089003     -2.75260041151342     -0.04274759240229
  H   -3.66624626078133     -1.30611933843262     -0.83127282747799
  H   -3.22398796033831     -0.98765394130976      1.47669403719116
  N   -0.23763497253592      2.35713060476934     -0.14778221184652
  H   -0.15263145905181      3.06544359106458      0.58116521114607
  H   -1.01916841306167      2.66760282744963     -0.72270964101899
  H   0.58817410049450      2.48922639331282     -0.73138315698721
