5
Coordinates from ORCA-job orca E -1083.460293937901
  Bk  0.13797811214172     -0.92913263114210      0.21654618728750
  F   1.65748255253750      0.36435862451574      0.11761067599105
  F   0.83737821486911     -2.73048249958211      0.72418573211620
  F   -0.75162538022449     -1.03011855748389     -1.56918240190542
  F   -1.18672349932384     -0.32166493630765      1.58289980651068
