4
Coordinates from ORCA-job orca E -1894.073428742314
  Np  -0.05762754945312     -0.09110315880715      0.15934757617106
  Cl  -0.89589906992709     -1.28194560912564     -1.88141148295187
  Cl  -0.89860890560250      2.26985101576540      0.13716126307659
  Cl  2.44862552498272     -0.07491224783261      0.14830264370422
