6
Coordinates from ORCA-job orca E -450.946615597158
  Pa  -0.22312557950747     -0.15137080989827     -0.42818160371706
  Li  1.20752255416683      0.69439781142556      2.13703675502954
  H   0.40014599197860      0.50916139868895     -2.23849950528133
  H   -1.33610123347745     -1.84166917308413     -0.50672864033844
  H   1.44654407080903     -0.46941295978480      0.81527716172547
  H   -1.49497580396953      1.25889373265270      0.22110583258184
