44
Coordinates from ORCA-job orca E -3008.676302539749
  Dy  -0.39683189574309     -0.82937287914604      0.19353259888936
  C   3.28517094145118     -0.40285121602825      1.78006333763147
  P   2.43715446961514     -1.69289360034564      0.80801026649762
  C   2.87384464837922     -3.22181667750143      1.71154986468515
  C   3.49223453197214     -1.80442702567512     -0.67914800261640
  H   4.34484382663762     -0.62870583371279      1.91604320652306
  H   2.79898994431787     -0.31863724801785      2.75177019063323
  H   3.16893812722895      0.54842162170657      1.26097473008305
  H   2.52615123098129     -4.08116177139965      1.13809335366111
  H   2.36572644046850     -3.22516419229815      2.67656788933983
  H   3.95069980811854     -3.30296683904646      1.87386594494989
  H   4.54461886932958     -1.93731490934588     -0.41992412681423
  H   3.37382306112882     -0.88281196105276     -1.24915966899378
  H   3.16311719582574     -2.64479630199871     -1.29099258143907
  O   -0.26913672839500      2.68422190067790      0.54301905268564
  S   0.68182144034151      2.20930315604523     -0.75383834309062
  O   1.84463056409034      3.06376512908592     -0.57945093966951
  O   1.05788913973316      0.77237466824092     -0.36578192829775
  C   -2.43278875712842      3.06696834709385      1.38721820635945
  C   -1.52939363430605      2.04882730207276      0.73417344298296
  N   -1.80037558920443      0.87787554848375      0.43061730265383
  H   -3.38259692821706      2.60071725157657      1.63329303130086
  H   -2.59354345707817      3.91162898314308      0.71499581603009
  H   -1.96361166683074      3.45666969471745      2.29113800992320
  N   -0.23387150692251     -2.67225284466653     -1.26069938055770
  N   0.45987302414142     -3.64254073170743     -1.25095450608000
  N   1.12709645210385     -4.57220799260924     -1.26709931895002
  N   -0.49672742289320     -1.80393504634199      2.89191664859772
  O   -0.50653670075066     -2.26882968166792      4.00594743009334
  O   -0.99741914481037     -2.42603965078892      1.89992197921268
  O   0.02271432263211     -0.68064596721834      2.63098117129377
  C   -0.24242280481726     -0.22494995040011     -3.84013420484806
  P   -1.53825253696269     -0.23994147025555     -2.54937019584342
  C   -2.70659931459036     -1.46901722535312     -3.23846208076445
  C   -2.41730449339141      1.32787236869775     -2.88010650978722
  H   -0.65854202930321     -0.07085422363963     -4.83787411537687
  H   0.28574271606681     -1.17777499627691     -3.80708402256542
  H   0.47068808793134      0.56949315569504     -3.61916026791819
  H   -2.95438007825072     -1.25669411097207     -4.28053385253478
  H   -3.62270088035713     -1.46873468961138     -2.64719033688480
  H   -2.24955384946311     -2.45447368836804     -3.15798765736957
  H   -2.76759805315543      1.39382288223429     -3.91222811606400
  H   -1.74173383649976      2.15597793124668     -2.66762902411420
  H   -3.26094753342436      1.40677278472832     -2.19468429344710
