34
Coordinates from ORCA-job orca E -1997.968804476339
  Yb  -0.19224063155296      0.05463230129370      0.30254556599630
  N   2.27190255009574     -0.61605819036993      0.28852329201734
  C   2.52124689628204     -1.43131103250749     -0.90809698844963
  C   1.60098745316274     -2.64040332057003     -0.92088393182502
  N   0.19668978690112     -2.21108858586884     -0.89913403887599
  H   2.77066448967276      0.26448621795268      0.24317736226863
  H   2.59971309346505     -1.08546669829598      1.12484967983439
  H   3.55816620852867     -1.76962346320501     -0.98682631894911
  H   2.30291162551926     -0.80676156086180     -1.77598425892668
  H   1.78594769029626     -3.25091045206292     -0.03354450993798
  H   1.84279004679550     -3.25518584575981     -1.79287605806605
  H   -0.42250148509037     -3.01065469585610     -0.90388230686393
  H   -0.00785239017497     -1.64849508950332     -1.72578239051985
  C   -0.72281982968458      3.01008803625127      6.63699206866036
  C   -1.70874874225491      2.13963403045234      6.19161996448455
  C   -1.60353098082611      1.55738169303335      4.93786555987332
  C   -0.51127225748290      1.84372903784809      4.12745681801377
  C   0.47438593867729      2.71558713859053      4.57481274344785
  C   0.36858335012317      3.29827729185891      5.82824362997282
  C   -0.39755325803716      1.21243481505718      2.77038302252165
  O   -1.31733666424123      0.43485178714319      2.38444289487519
  O   0.61451384624205      1.47649738196035      2.05956752357973
  H   -0.80567540527767      3.46572541184861      7.61507356525044
  H   -2.55930307074082      1.91730212186366      6.82220541494269
  H   -2.35865517491598      0.87859353244297      4.56742814415542
  H   1.31252915889056      2.92538254407611      3.92534714962613
  H   1.13488325631358      3.97849345268753      6.17563312708326
  C   -0.40945836229581      1.24792967589622     -2.99297795982088
  O   -0.21607246732977      0.61109122340040     -1.78046185446047
  H   0.21177011692645      0.81757631751685     -3.79344962028425
  H   -0.16758761482001      2.31872228648336     -2.94827740459034
  H   -1.45379458267497      1.17776416485316     -3.34006079437419
  C   -2.59312990957663     -0.24366647444041     -0.94792113356882
  O   -3.32975268091607     -0.07835505320754     -1.78230795709036
