24
Coordinates from ORCA-job orca E -1339.209532321275
  Eu  0.01749929484453      0.34967167497957      1.27386011447561
  C   2.69692671400463     -1.64888561640284      0.97595375827673
  C   1.77268401628991     -1.21143681216552      2.08905400240851
  O   1.93220456714158     -0.03712273754358      2.54017315115364
  O   0.63020871699442     -1.75144866456221      2.12947088172996
  N   2.02869815529486     -0.88978496813102     -0.14292810234198
  H   2.66491928826159     -2.71884493099902      0.80139921123966
  H   3.71472917225197     -1.30551962025023      1.12220991597755
  H   1.66339987628775     -1.54290002160612     -0.82681710627378
  H   2.71110473170907     -0.32159325246340     -0.63055242803660
  C   -2.12244579580700      4.32106694875064      1.76580463101787
  C   -1.91159863829856      2.96998623454774      1.17156173556732
  C   -2.79489396522202      2.44511293910224      0.22656461007538
  C   -2.65316682897519      1.19403103113710     -0.37278846619553
  O   -1.67965114731497      0.38474873161240     -0.12017460412548
  C   -3.65717909021218      0.71488600901927     -1.36708078310844
  O   -0.87778773682230      2.32579569531958      1.58102463199523
  H   -3.01320033060794      4.80905988475902      1.38429168047219
  H   -1.24693282504631      4.93750707136735      1.55885977432027
  H   -2.19124607456184      4.22253667993464      2.84967556152505
  H   -3.64311745210172      3.04584867809279     -0.05914647089314
  H   -3.15117032890686      0.49628640422465     -2.30767867612092
  H   -4.44659972845463      1.43996240495606     -1.53674811946459
  H   -4.08928459074874     -0.22056376367923     -1.01038890367456
