5
Coordinates from ORCA-job orca E -384.697673247752
  Ac  -0.45654820116081     -0.66153663241275      0.07380189705414
  Li  2.77985420080751     -0.41305225724273      0.45038549982780
  H   1.59873794873503     -1.67265766878685      0.58800012056909
  H   -1.36635070060619     -1.35937965737868     -1.81531087533419
  H   -1.86120324777554     -0.54041378417898      1.77518335788315
