4
Coordinates from ORCA-job orca E -8556.918471339730
  Fm  0.06353097426148      0.08425812996251     -0.13644844145728
  Br  -1.02204936889233     -1.46887693050984     -1.89027764360453
  Br  -1.04085189967235      2.37974887801996      0.29140480677161
  Br  2.59586029430320     -0.17324007747262      0.29872127829021
