5
Coordinates from ORCA-job orca E -1131.722043199232
  Cf  0.13163232704795     -0.93016340613123      0.22017025865306
  F   1.64731123565289      0.34923503121346      0.11308581326968
  F   0.83910702806586     -2.71689124433949      0.72085233059743
  F   -0.74117072570339     -1.02518366346767     -1.56012962422959
  F   -1.18238986506331     -0.32403671727507      1.57808122170942
