5
Coordinates from ORCA-job orca E -1353.406041637683
  Nd  -0.43719640180739     -0.54771462698548      1.59559692478040
  B   1.33247458212672     -0.73742002504554     -0.48183546556140
  Be  1.22078063478116     -2.48646177032720     -0.19762118090751
  Ca  0.08676409040523     -1.36290614521048     -2.53072523544490
  O   -1.50833290550572      0.48746256756871      2.68664495713341
