30
Coordinates from ORCA-job orca E -1924.813159630731
  Ho  -0.40808801693458      0.83282681992635      0.79070296929979
  N   0.70778565688382     -0.54256716163353      2.47559790393507
  C   1.81485811480982     -1.32975050055766      1.84333914510935
  C   2.47355407527483     -0.51862479106433      0.74652648560241
  N   1.48036245060074     -0.22155159309086     -0.33706323359327
  H   1.12426716316837      0.11570280250347      3.13478572144444
  H   0.15483115629923     -1.16832200035611      3.05621261558206
  H   1.38352870161510     -2.24457940471627      1.43516135360041
  H   2.55577409838304     -1.62089514893869      2.58587800864841
  H   3.33105806495528     -1.05884404775257      0.34895867103304
  H   2.83624710494832      0.43460651822950      1.13484491085104
  H   1.30102020529855     -1.07992557871076     -0.85476614069785
  H   1.92723452824683      0.39540110600934     -1.01369378680166
  F   0.47322949138791      2.49369169924625      1.27172368155721
  C   -4.84413545887319     -1.78799476447124     -0.48946800858065
  O   -3.60515062686309     -1.09572936177244     -0.12201589594939
  P   -3.55816569120647      0.47059377878216      0.08497723966354
  O   -2.60511061688745      0.53663848505385      1.48856007996899
  C   -3.34133373922692      0.44907328172030      2.75431124632376
  O   -2.12981020532632      0.82040579564065     -0.76727603333357
  C   -2.29540954086350      1.03889088525549     -2.20894656133449
  H   -5.05500683852912     -2.50982140103386      0.29122974206210
  H   -4.66656732603437     -2.28921483812754     -1.43409780672082
  H   -5.66388482586853     -1.07864344913809     -0.58333572322164
  H   -3.55158670707841     -0.59435128349207      2.96973863843845
  H   -4.26312759536816      1.02079865844173      2.67186083543261
  H   -2.71695540321537      0.88793882479432      3.52546477856477
  H   -3.20538152186753      1.60940903229333     -2.38140548961716
  H   -2.34042033119427      0.07611493346700     -2.70923827927650
  H   -1.44221636653437      1.61462270349228     -2.55206706799053
