7
Coordinates from ORCA-job orca E -2569.586664050487
  Es  -0.00749545757821      0.00071945276535     -0.00884309316281
  I   0.58187836405210      0.35549864775229      2.89194980114255
  I   0.39725213622644      0.66706817270552     -2.89211335718330
  I   -0.63596890331821     -2.89009938731568     -0.35279041256356
  I   -0.29109395675830      2.90996393835131     -0.62811934623144
  I   -2.91319111224231     -0.61869780083323      0.28594851336432
  I   2.86862892961849     -0.42446302342556      0.70395789463425
