33
Coordinates from ORCA-job orca E -2208.789267460580
  Ho  -0.15250597836788      0.74804618080648      1.11609266185107
  C   -0.09848652273902     -1.39800533108065      3.80129833341604
  O   0.12444673973912     -0.07200607101387      3.20665499632204
  H   0.84184474910722     -1.77019322546164      4.19434799324566
  H   -0.45984805518578     -2.04412491759225      3.00702691655943
  H   -0.84871138002441     -1.31292123487235      4.58044821003763
  H   0.39013846625978      0.54685353169589      3.90001116652499
  C   3.96064656528449      0.68176090195763     -0.86679828057838
  C   2.80921516474662      1.00027168814188     -0.16131193074084
  N   1.78195913381957      0.13661497111139     -0.10364036054381
  C   1.91753047633726     -1.03214027288859     -0.75174265754577
  C   3.07613343552714     -1.32624880276532     -1.44954157715987
  N   4.09202237220252     -0.47265073241376     -1.50583507234486
  H   4.78764579440558      1.37803217589598     -0.91245627945245
  H   2.70727025036808      1.94666783666513      0.35478986113122
  H   1.09542149723819     -1.73686672673158     -0.71536850571320
  H   3.18377681334587     -2.26790473673071     -1.97147478321051
  C   -6.40838592301620     -0.03207316059784     -2.05347487394022
  C   -5.57781804596860      0.96671811522936     -2.55938547149545
  C   -4.32182828143990      1.14462925512299     -2.02481861975504
  C   -3.89263505832664      0.31665842657399     -0.97294721369947
  C   -4.73399476435423     -0.69021346623828     -0.47207921872341
  C   -5.98968875514205     -0.85852781719953     -1.01565710436571
  C   -2.60423614285580      0.46175071445574     -0.37445537970578
  O   -2.10331185263520     -0.25725456637198      0.51364153145081
  O   -1.74823316173682      1.45604821443033     -0.72873334006571
  H   -7.39431369795520     -0.16610683604234     -2.47729868687248
  H   -5.91686634597788      1.59587980045795     -3.36917301095570
  H   -3.69018147044107      1.91640355002438     -2.44953228264811
  H   -4.39278054509600     -1.31989582316412      0.33698298234439
  H   -6.64606857891843     -1.62788912358428     -0.63619381594213
  H   -2.11148763445089      2.13432101521696     -1.31531349831605
  Cl  0.19053073625066      3.02196646696299      1.77333731089173
