33
Coordinates from ORCA-job orca E -2026.392252240107
  Sm  -0.99257226462329     -0.30834918062254     -0.04914442360526
  C   -0.03378014465559     -1.87129854970978     -2.88974286201362
  C   0.60830104633344     -1.56151838439320     -1.55556591494231
  O   0.25327998822110     -2.26825871179384     -0.56724118181701
  O   1.03015226701085     -0.38379698005571     -1.37873796834483
  N   -1.34866847885246     -1.18913462147109     -2.64324755999815
  H   -0.16906166105868     -2.93627106893733     -3.04372204423905
  H   0.49747593295764     -1.42328257545190     -3.72278221656239
  H   -2.11481385226103     -1.83675326930854     -2.78170484222764
  H   -1.48179945095191     -0.43501602621200     -3.30590547780353
  Cl  -3.07992988112870      0.64753222770208      1.06956910688589
  N   -2.37834963576847     -2.90099638311171      0.99830144159656
  O   -2.71763472605522     -2.56363282526696     -0.08947449375779
  O   -1.63705475566172     -2.41306329360895      1.78314943942971
  C   0.80930666051927      0.59565468713943      4.22166157912711
  C   -0.01202395852615      0.47008374569665      3.11231818551640
  N   0.46451820374905     -0.01591252839538      1.96016782980482
  C   1.75217371143552     -0.37520434240765      1.92586505907295
  C   2.55480097965402     -0.23932997640815      3.04751394378510
  N   2.08907998930648      0.24466924071511      4.19255433741578
  H   0.41991357711845      0.98795671433904      5.15168820553794
  H   -1.05560341253994      0.75530573651166      3.14028231412237
  H   2.13267553615752     -0.77112843322501      0.99431681312685
  H   3.59621385694507     -0.53078977367699      3.01555503825669
  C   1.09563936268489      3.44550242436993     -0.35954092635284
  C   0.33577953816715      2.70142948967594     -1.42917358853580
  O   -0.75058949319907      1.91856043582333     -0.84272039156342
  H   1.90291355497038      4.01786256632185     -0.81496688303974
  H   1.53433906133140      2.75208893728617      0.35796901762858
  H   0.45150151721189      4.14559032107757      0.17346261616387
  H   0.95744068914033      1.97165391121664     -1.93794562291115
  H   -0.10378856189318      3.37275422240365     -2.16490309144344
  H   -1.42443519573908      2.50709226377767     -0.48055543831265
