4
Coordinates from ORCA-job orca E -1113.064713171221
  No  0.00937901539797      0.94471767362423      0.01828051808188
  Be  0.49567919633648     -2.08356214314695     -1.55552197092040
  O   -0.37958172978948      2.80779310789039      0.94102574216439
  O   0.47101351805503     -0.84705863836766     -0.84038428932587
