42
Coordinates from ORCA-job orca E -2400.723161671672
  Yb  -0.09494206906303      0.71245582182565     -0.43194500922717
  O   0.50064906681335      1.82518239805933      1.87396665760537
  H   1.31958832571777      1.33171044713744      1.54172529870902
  H   0.33437852246531      1.53552099409671      2.77185181900753
  C   3.72880139388786     -0.39329613804241     -1.06929498753106
  C   3.38215234927474      0.51238256224956      0.10255718922760
  O   2.02696186372687      0.42173688978162      0.43839093884705
  H   4.78300439024402     -0.31076606924952     -1.33954286052186
  H   3.12922724521689     -0.13184512052960     -1.94340771009744
  H   3.52393885964366     -1.43587304645665     -0.81704830577599
  H   3.64692452811104      1.54716322878244     -0.15739497000056
  H   4.01067471686757      0.24138948455082      0.96193645202900
  C   -4.35736625777314     -0.40264451489622     -2.13298846989377
  O   -4.44483750213567     -0.53277998354645     -0.70176183794383
  P   -3.10612405112488     -0.96026114868786      0.07898125367042
  O   -2.39962045205191      0.51725243617020      0.38588586623960
  C   -3.20261844633299      1.64626093342219      0.77995201190953
  O   -3.85972480200545     -1.22428297257808      1.49112414894662
  C   -3.01017966692106     -1.58333656407721      2.58328150902870
  H   -5.36550810581919     -0.52146176059337     -2.51808791587886
  H   -3.70721259417260     -1.16836332877484     -2.55712989064963
  H   -3.95859668856116      0.57301486229981     -2.40344421984659
  H   -2.54480071373098      2.34428191363338      1.29085919884823
  H   -4.00043652512798      1.32367654931783      1.44568992858103
  H   -3.62713181569054      2.11811167728802     -0.10373367738158
  H   -3.60100341044900     -2.17952879839012      3.27277950473226
  H   -2.65198129366217     -0.68693638410061      3.09116293391159
  H   -2.14616866058942     -2.16118855959211      2.24730329565033
  C   -0.48205812365065      4.19390210864191     -1.28881249683390
  O   -0.27910811869460      3.11755830816168     -0.36980416555427
  H   0.45848161354119      4.69972114700198     -1.50613837841773
  H   -1.20113333261332      4.90895462457474     -0.88873920313115
  H   -0.87765543831721      3.75222752817671     -2.19879573061302
  H   0.05247533921605      3.41941212023471      0.48265251190543
  C   -1.34713244480409      1.20328943214306     -3.00986778777617
  N   -0.59406355118856      0.35529426580515     -2.71935250018731
  C   0.39381070666956     -2.70351374010259     -0.06186337108784
  O   0.29592581822379     -1.48640368573998      0.67244065393064
  H   0.89649870512479     -3.47288162246374      0.52638263794653
  H   0.93298514409429     -2.56065681391426     -1.00114012383804
  H   -0.61684021076236     -3.03306011661050     -0.29115409984195
  H   1.19016568640360     -1.06681936500896      0.74742390130320
