16
Coordinates from ORCA-job orca E -1969.369006580746
  Ho  -0.66624780494531      0.23791183586800      0.52018721334104
  F   0.06755683344407      0.58920656185580      2.40321990028972
  N   1.21870107803385      1.74151628033570     -0.17456218694580
  H   1.71567828512497      2.05295335431393      0.64959344269185
  H   0.68967961548506      2.51388009625927     -0.56601425515169
  H   1.88045554020067      1.39066036326162     -0.85263627265273
  N   0.66598679698423     -1.38551148515055     -0.36082909711240
  N   1.55987435936703     -2.11628159057357     -0.63488168992230
  N   2.41747273591159     -2.82265385561523     -0.90850131925112
  O   -2.25364664948822     -1.62426168237792      0.83141406682000
  H   -2.93316993835142     -0.90876286957055      0.78671433007013
  H   -2.24540075800447     -2.00979662077117     -0.05112441478586
  O   -1.53336580894439      2.30803378747998     -0.29297401035587
  S   -2.81021726804075      1.49622996689976     -0.60684413474919
  O   -3.08306493525978      0.85489875708017      0.77831487607756
  O   -2.22779208151698      0.30567710070463     -1.38227644836331
