45
Coordinates from ORCA-job orca E -2598.321686799653
  Dy  -0.76532155516237      0.57075369313881     -0.34513026800254
  C   3.47626303935119     -1.21800289010532      1.39773648507745
  P   2.63407630470999      0.14023276150180      0.59167371998624
  O   1.12553763353641     -0.05462000480990      0.69200394694387
  C   3.18975099719667      0.20415854938132     -1.10583408691093
  C   3.15715249841621      1.65211174062890      1.39258591935096
  H   3.20864986979291     -2.15141202921826      0.90411692122224
  H   3.17066579638655     -1.26448621834052      2.44211495587649
  H   4.55618002700106     -1.08554114864696      1.34604768463494
  H   4.27556589020947      0.28756017184010     -1.14544899932361
  H   2.74472612995429      1.07187090463225     -1.59272386631333
  H   2.86917801180581     -0.69608339545309     -1.62819335765833
  H   2.78323453014788      2.51494204413834      0.84236172215288
  H   4.24530019597010      1.70518987498589      1.42176506051386
  H   2.76840269497658      1.67937349043225      2.40967838991411
  N   0.30910448784415      3.11500170590397      0.07151516843620
  O   0.59432651526208      2.44774397501055     -0.97907049188314
  O   -0.51820754019420      2.54152021230066      0.86895211261171
  O   0.78138443137545      4.18302546776634      0.30741914054618
  C   -2.81006621382160     -3.30971763492076      1.83260300991721
  P   -1.95388265812092     -2.72742047543032      0.37672968421865
  O   -1.85523920039498     -1.20573700069521      0.39601792017841
  C   -2.84692453131527     -3.28863289886340     -1.06504932620281
  C   -0.32525224711637     -3.46559967382276      0.34309459856298
  H   -3.81102623665088     -2.88115913823186      1.85635998104790
  H   -2.26830648293635     -2.99040769292763      2.72182723062103
  H   -2.88417967215928     -4.39650123858994      1.82638975883990
  H   -2.32037024726515     -2.97123095479607     -1.96501259052701
  H   -3.84381816119774     -2.84968471209308     -1.06403668871543
  H   -2.93248781101319     -4.37485648102738     -1.06349802433488
  H   -0.39191113920392     -4.55295048081043      0.34439608901714
  H   0.23170356433242     -3.13288590131585      1.21857400896009
  H   0.19111501038105     -3.13108367956440     -0.55729971335389
  N   -0.65912394054757     -0.82446402807396     -2.82984390593929
  O   0.26605907006007     -0.89431663152123     -1.98710734958739
  O   -1.47821210914242      0.09275874397028     -2.56572943146632
  C   -2.94955413899600      4.16611960583936     -1.36295687520248
  C   -3.35692756075103      3.01857698075187     -0.47063685559775
  O   -2.76774955516038      1.76879360901686     -0.92131891908490
  H   -3.39507347526950      5.09134909265180     -0.99959030958122
  H   -3.29227792537495      4.01094743522646     -2.38682237168177
  H   -1.86751369183863      4.29215150626833     -1.37565948479802
  H   -4.43818941419493      2.88927894397242     -0.44106076155131
  H   -2.99482857103478      3.15463981825800      0.54445270696254
  H   -3.06313261984784      1.57549398164182     -1.81849253787655
