32
Coordinates from ORCA-job orca E -1241.409191031538
  La  0.03899313961224      1.01576249586045      0.34852167244523
  C   4.07063023478172      1.03394684812157      0.84017046571880
  P   2.91806853192866      0.10317645797054     -0.21287236827342
  C   3.66049666976154      0.14597629456411     -1.86989373276328
  C   3.10206590501226     -1.61994946187434      0.33618122322321
  H   5.06933787880724      0.60414237255491      0.75800703881097
  H   3.75358350041994      0.98418005917062      1.88124922608260
  H   4.11959755711067      2.07777654104040      0.53221054817489
  H   4.67979968093164     -0.23764540732330     -1.82155280339181
  H   3.69131472905698      1.16548167385945     -2.25138386184693
  H   3.09040581765571     -0.47057416998118     -2.56329895237417
  H   4.15017405806631     -1.91381197799521      0.27316630843903
  H   2.51830082413365     -2.29084765779828     -0.29324115407731
  H   2.77094268704173     -1.72372800159593      1.36882422104547
  Cl  0.44490613064563      0.42766262498660      2.77241919336860
  N   -0.41967253750012      3.56831190754465      0.97621534278599
  H   -0.34077917102443      3.63969071456368      1.99099727229857
  H   -1.34205040857785      3.94309228230937      0.75948413048370
  H   0.23029880530902      4.26503457409986      0.61499356250332
  C   -2.04144522747090     -1.26086670929695     -1.37237433768974
  C   -2.87329938972842     -2.44855802929295     -0.94090789553758
  C   -3.68706875067193     -1.87297181221245      0.21681377596115
  C   -2.66879917164372     -1.03114375390920      0.95385231545300
  O   -1.75218683267233     -0.53135472696138     -0.11434482645859
  H   -2.59503353678756     -0.58389234047343     -2.02092319477919
  H   -1.08906108381205     -1.52791679363837     -1.82895015621235
  H   -2.23496024765108     -3.26409674891589     -0.60246541939830
  H   -3.49489661579648     -2.81390311264734     -1.75432067411075
  H   -4.10331076604810     -2.64189108272906      0.86254753231347
  H   -4.50543726785689     -1.25607371793243     -0.15249675732004
  H   -2.06204181019189     -1.61132235661552      1.64608814554011
  H   -3.08727333284121     -0.16298698545294      1.45818415958534
