6
Coordinates from ORCA-job orca E -392.196645351976
  Ac  -0.37968459862457     -0.06237883555111      0.56260733168321
  Li  1.81993157197546     -0.21531182858454      3.11680046908549
  Li  -1.25477546087964      0.21095362271678     -2.42621875144613
  H   -0.92994679792743     -1.17093358288216     -1.45139623757245
  H   1.79289971530252     -0.14566685223990      1.38057704940156
  H   -1.04841442984634      1.38333747654093     -1.18235986115170
