22
Coordinates from ORCA-job orca E -1801.404358654026
  Pr  -0.20798114055792     -0.00297711686279      1.61880815286708
  C   2.93805822523820     -0.84345500983176      0.99238396306483
  C   3.52773917455362     -1.97831953053589      0.19665946989463
  C   2.82797751654289     -1.85571080703427     -1.15687282992044
  C   1.38219800849307     -1.61924272555598     -0.79517595231549
  O   1.46572493678123     -0.81819719715155      0.53208264652681
  H   3.33753455432654      0.12998577665784      0.71920866069848
  H   2.92518875597519     -0.99055051496499      2.07211821338034
  H   3.32676351398412     -2.93802378287577      0.67145870075662
  H   4.60704748909670     -1.85871137914065      0.11347477138889
  H   2.91959672929682     -2.76348543212734     -1.75151357135865
  H   3.22390835662116     -1.02440940120717     -1.73804324204622
  H   0.84917700156611     -2.53245874360670     -0.53925073480297
  H   0.82657989402514     -0.99569499731911     -1.49112344546207
  C   -4.40420325873417      0.11329756558153     -1.00229359792850
  C   -3.16518897708324      0.11739883606697     -0.27618043654910
  N   -2.16535343873249      0.11405452834339      0.30828263658676
  H   -4.59703176019345      1.11578104167217     -1.39310817555537
  H   -5.21345404803871     -0.18158655465650     -0.32871197551250
  H   -4.33362928049201     -0.59943999662205     -1.82799309571815
  Cl  0.49270523550855      1.88686846943660      3.74577551628757
  Cl  0.71004251182255      2.70667697173412      1.92651432571743
