6
Coordinates from ORCA-job orca E -860.008899018416
  Fm  0.65241854400249      1.63594734133085      0.13466338069666
  Li  -0.34457137878802     -0.92789796179952      1.71327327959113
  Li  -1.60913174587167     -0.21724652233557     -1.06861359981861
  Li  1.26284934622802     -1.37443097218830     -0.64906092909094
  H   1.19004686652660     -0.54771016063186      0.91695972597265
  H   -1.15160163209742      1.43133827562440     -1.04721185735086
