14
Coordinates from ORCA-job orca E -3351.258372118444
  La  -0.10337247747870      1.04887416007142      1.14694914436790
  S   4.42745964793531      1.33247206982662     -1.55864749908352
  C   3.05838897082744      1.29610147661024     -0.69816473522605
  N   2.06324957243674      1.26980904445557     -0.07218543282796
  F   0.26709632447470      0.24512080077341      3.14923565725403
  Br  -1.57532280344600      3.55860735557316      1.28583617431544
  C   -2.16728935392653     -2.66852424365664      0.29375527080788
  C   -2.09556189929196     -1.40110807861851     -0.54724890741539
  O   -1.31095314958810     -0.42922246648111      0.05450726516789
  H   -2.79238685762598     -3.42652180536032     -0.18479611537968
  H   -2.58308710508970     -2.44319839333566      1.27660939192951
  H   -1.16789247693804     -3.08126907057564      0.43704310841957
  H   -3.11477782576040     -1.02224381134905     -0.70968748784459
  H   -1.69675056652874     -1.65329703793345     -1.54010583448505
