5
Coordinates from ORCA-job orca E -2478.556268276452
  Cm  0.13852689851590     -0.92819743035769      0.21195084771262
  Cl  2.08225858670011      0.69472494983711      0.07575099743546
  Cl  1.03654135410190     -3.19994098599873      0.89106070417867
  Cl  -1.00458816350170     -1.02834806222079     -2.04930425290995
  Cl  -1.55824867581620     -0.18527847125990      1.94260170358320
