4
Coordinates from ORCA-job orca E -1878.347426773371
  Bk  -0.46643197023153     -0.58138368025844      0.36709683465435
  S   -0.96693688979612     -1.26597511690885     -1.79690402809266
  S   0.20759012515328      1.94315831378304     -0.04186986857822
  S   1.82226873487438      0.72609048338425      0.03507706201653
