4
Coordinates from ORCA-job orca E -1189.654096491266
  Tm  1.17869552879272      0.15221717400782     -0.47472751301952
  Be  -1.52911228980362     -0.32474476090961     -1.30746600711640
  Be  -1.39156379506204      1.41649497668168     -0.42839156421782
  O   2.33847055607293     -0.42207738977989      0.77398508435374
