25
Coordinates from ORCA-job orca E -2198.846137296957
  Gd  -0.00622460706472      0.55064762452502     -0.17276507265764
  C   2.16250502368157     -2.00851285512853     -0.73716869677492
  C   2.82071078391050     -1.08110821051468      0.30260141454657
  O   3.91967953007794     -1.43005939833071      0.76280011038886
  O   2.18813072805444     -0.01300742628272      0.57114185781838
  N   0.75089400748622     -1.75015170405699     -0.93652853913939
  H   2.39429992526919     -3.04178449562645     -0.45306996243538
  H   2.67141852715763     -1.81737059831840     -1.68586519247555
  H   0.13528204768717     -2.28756393881563     -0.34232815604589
  H   0.49804711698922     -1.76842377170507     -1.93482804935163
  C   -2.06842975075125     -0.80357706768434      1.93797820937434
  O   -1.16343545896813     -1.00357415661793      0.91852475210735
  H   -1.92943112199663      0.15530181966843      2.46478561919568
  H   -1.99618930032539     -1.59466526598419      2.71620510655573
  H   -3.11470741990580     -0.80717118804083      1.58404096573907
  N   0.75458343491551      2.83933291681841      1.67840307269771
  O   0.21778899026088      1.80700704724125      2.12460171905314
  O   0.93339606915763      2.83369444320702      0.43698375671199
  O   0.09935829749309      0.73007269846125     -2.36121110892229
  S   0.68560333189622      0.23330878610953     -3.75507272759395
  O   -0.26777773569001      0.72572356407228     -4.79257067483892
  O   0.58279798432729     -1.28277555505932     -3.67327982979536
  N   -3.25684426620488      1.51628858419982     -0.17396107123139
  O   -4.11494589957948      2.37459026712994      0.05184602109048
  O   -2.06131023787818      1.89417788073286      0.00173647598301
