5
Coordinates from ORCA-job orca E -40.701350091407
  La  -0.47453375510014     -0.88880423208086      0.12238571751942
  Li  2.69317999303069     -0.35964028717155      0.43080420595852
  H   1.63208889307695     -1.68928132289540      0.59218529086250
  H   -1.33385847725983     -1.26216747057925     -1.81724917509198
  H   -1.82238665374768     -0.44714668727292      1.74393396075153
