41
Coordinates from ORCA-job orca E -2885.192542999669
  Ho  0.10305313183399      0.20979022005273     -0.17322145880518
  C   -1.10780445730235      0.02067552289074      4.41159135184611
  C   -1.07382661707807      0.09871312425192      3.02753037975958
  N   0.07475816391448     -0.02755491664615      2.36674672094363
  C   1.17740564034476     -0.23370482401846      3.08283387239274
  C   1.12277152944549     -0.30424487237617      4.46686215142010
  N   -0.01508629734313     -0.17831748998582      5.14214934426548
  H   -2.04659034148839      0.12125007910224      4.94180879449295
  H   -1.96054149380062      0.24300135330797      2.42295236394184
  H   2.09678404443163     -0.35271885749128      2.52329872333850
  H   2.02550084080597     -0.46779476862354      5.04224770154939
  O   1.90850131596613      1.54576864465364     -0.69449293619802
  S   3.08797325020662      0.64343302592886     -0.16856657325332
  O   2.21807860506231     -0.61489551800440      0.22634063358235
  O   3.91210209015596      0.26554783870301     -1.32618333575299
  O   -0.06796875327399      2.56352226573420      0.80285798176639
  H   -0.69738440593957      2.70919440902378      0.07218801680781
  H   0.80739616171557      2.70116150388783      0.39789447752567
  O   -2.08636261943504     -0.20534626596130      0.17002419096136
  S   -2.75090005903118      0.93996193805212     -0.68873638548617
  O   -1.42335506481229      1.53901138630404     -1.29705013670191
  O   -3.48750655903876      0.28898088594159     -1.78536804375147
  C   -0.59901474792601     -3.15088127197979     -0.50402951221942
  O   0.16842588604296     -2.20076635069247      0.22657777059417
  H   -0.51129705212382     -4.14120677331173     -0.05286344968347
  H   -0.28275915589245     -3.19093118815815     -1.54658952324633
  H   -1.63268494962660     -2.81550214477886     -0.45699533751692
  H   1.11979662218073     -2.27308719466042      0.05165445949151
  C   -0.88222380182291     -0.87790636271624     -3.22825744399274
  C   -0.79027862190840      0.32802282403310     -4.16857590821446
  C   0.67753191802810      0.78815346464941     -4.03734553900702
  C   1.33931114083502     -0.35244246679750     -3.28183032377850
  O   0.29434213175238     -0.80207797384572     -2.39106213545135
  H   -0.82626546891655     -1.82382160595219     -3.77893469188641
  H   -1.76825898097979     -0.85902304744092     -2.59929269803791
  H   -1.47995308044764      1.09982998722273     -3.83828638721090
  H   -1.04013427243539      0.03950299852508     -5.19001556300565
  H   0.74260202960911      1.69304715471045     -3.43413557602575
  H   1.15767290577041      0.97448457141351     -4.99765099438279
  H   2.21189943382243     -0.08182179687260     -2.69439241411411
  H   1.58518995869905     -1.18730750807524     -3.94928256695662
