4
Coordinates from ORCA-job orca E -2018.734866625624
  Cm  -0.04236625473293     -0.06411248915133      0.11536900578500
  Cl  -0.89609346253837     -1.29140273990870     -1.86482445187303
  Cl  -0.90346471247754      2.26257138602312      0.15342157841651
  Cl  2.43841442974883     -0.08516615696309      0.15943386767152
