10
Coordinates from ORCA-job orca E -1605.008564119996
  Tb  0.19991029589006      0.77479441569060      0.84496221423531
  F   0.37209852027121      0.66397078439264      2.78481544379785
  O   1.85930811677058     -0.56560352312302     -0.22644940974511
  H   1.68385891168311     -1.09226761903298     -1.01705573534889
  H   2.70609591331425     -0.87341303624163      0.12056137775547
  S   -4.12541114675314     -0.77386668303355     -0.72242124622240
  C   -2.71261752526220     -0.26463714710461     -0.32140053328380
  N   -1.61174039557795      0.13346941039577     -0.01971135303972
  C   -0.54944372335428      3.40968990188763      0.43929207144022
  O   -0.96865896698162      4.43126349616910      0.29190717041108
