7
Coordinates from ORCA-job orca E -3236.369157319253
  Ce  0.00203836729491     -0.22093317380507     -0.22259749270271
  Cl  0.78413235423723     -0.08861121552306      2.35592516975675
  Cl  0.54088734296356     -0.06024108785727     -2.61817141689754
  Cl  -0.50052120137982     -2.62687741938029     -0.10380881624333
  Cl  -0.81587605821330      2.34590913185674     -0.06649256059519
  Cl  -2.55719842906066      0.45766670028122      0.15991563620252
  Cl  2.54654762415806      0.19307706442772      0.49521948047949
