7
Coordinates from ORCA-job orca E -3419.114494060585
  Sm  0.00362885670187     -0.00161388165940     -0.02821115429336
  Cl  0.78249610068273     -0.49416994028420      2.49742795578508
  Cl  0.39881065104543     -0.93258898002914     -2.51850036354643
  Cl  -0.53320053822707     -2.55684393172061     -0.69403221455406
  Cl  -0.70320598709573      2.53602698951685     -0.58095982400832
  Cl  -2.44748450605805      0.93530216271426      0.51865854378549
  Cl  2.49896542295081      0.51387758146224      0.80560705683160
