6
Coordinates from ORCA-job orca E -1182.991654591504
  Bk  -0.00184442747943      0.00291243756982      0.00057689864709
  F   0.51158988820449      0.86078233463967      1.72799640917079
  F   0.50222048322974      0.85015229269772     -1.73465279788438
  F   -1.00891203673763     -1.71996327973505      0.00418171609755
  F   1.73446648906783     -1.01668768200209     -0.00049496458086
  F   -1.73751039628500      1.02280389682994      0.00240273854982
