4
Coordinates from ORCA-job orca E -621.526070209261
  Pr  0.76679229973269     -0.33641890678064      0.57780996638335
  Be  -1.39761429440090     -0.31539244894189     -1.67683880739033
  Be  -1.30241795126440      1.69486426011522     -0.62820933617035
  O   2.52972994593260     -0.22116290439269      0.29063817717733
