31
Coordinates from ORCA-job orca E -4311.417424345831
  Eu  -0.28497759506608      1.35142410165914      1.07082057138945
  Br  -0.30211239548412      1.15332795783798      3.67143311142141
  C   3.42683767131972     -0.60309048434243     -1.00583108115603
  C   2.20258048710252     -0.01991535940083     -0.72784499434949
  N   1.85945964462129      0.30255840233674      0.52910005212078
  C   2.74708990982629      0.03404165885075      1.49889352080941
  C   3.96804232528049     -0.55323794956187      1.19737741769200
  N   4.30520214884425     -0.86888471757109     -0.04552391242097
  H   3.70148365475162     -0.85960112467573     -2.02055156829359
  H   1.49307896986385      0.18570264187580     -1.52121044915483
  H   2.47629962645713      0.28352288786752      2.51658890176066
  H   4.68165201441378     -0.77112196784756      1.98115191347971
  O   0.46246818852176      3.62660695895829      1.31582430489885
  H   0.82266503458316      4.32837588287537      0.75924881597535
  H   0.49824821259253      3.95490297337188      2.22652296986958
  C   -5.22718441830118     -0.55336082321146      0.43948716229496
  O   -3.87078617397187     -0.02455182118371      0.61040927423687
  P   -2.78648561272569     -0.10184445615512     -0.53095399659169
  O   -2.13759496917603      1.47503422711359     -0.39846879845657
  C   -2.95700000288527      2.53635452317066     -0.98973797641326
  O   -1.44394458423113     -0.58942204798583      0.37414350133266
  C   -1.42358973730156     -1.98866993473780      0.81026748013672
  H   -5.36879897045244     -1.32446428674925      1.18797057449678
  H   -5.35285124055447     -0.96249218383965     -0.56091941800286
  H   -5.91484111992078      0.26793058170059      0.60501177694997
  H   -2.34692924543042      3.43247186031743     -1.03596334247811
  H   -3.82737330157662      2.70311098582977     -0.36195096197272
  H   -3.24945819303449      2.24331716702510     -1.99557580525584
  H   -0.40442320833740     -2.21711930985478      1.10330620521320
  H   -1.71765111478990     -2.62615426464720     -0.02108889690362
  H   -2.09820600493885     -2.10415207902640      1.65306364737113
