47
Coordinates from ORCA-job orca E -2041.406840610972
  Gd  0.01863684204104     -0.43238521138136      0.46183709791755
  C   -1.83948087228726      3.81764142624660      0.97568381444827
  C   -0.96196942427993      2.73037024696034      1.36112392214022
  N   -0.29617880180984      1.83503291677615      1.63283231976127
  H   -2.25780177953932      4.29285589685050      1.86031599538513
  H   -2.63578763517939      3.39056781545864      0.36328522090192
  H   -1.27978780360174      4.54687855377797      0.39192503551365
  C   4.69926153614718     -4.54458946911229      3.19784957358264
  C   3.65206354133952     -4.45668732487623      2.29063704403226
  C   3.19327302969123     -3.21699300218782      1.88158486302687
  C   3.79706698078469     -2.06082313598340      2.37326204752457
  C   4.84616146702164     -2.15217080455248      3.28890750628226
  C   5.29312679493356     -3.39429790592124      3.70167401176387
  C   3.28816730569201     -0.75836398990477      1.90587870166129
  O   2.18592012339618     -0.62314786808290      1.38696586800429
  O   4.03940424933789      0.32041650635411      2.03368967315895
  H   5.05317977958554     -5.51445538550192      3.51911926306156
  H   3.19138161842335     -5.35367692960495      1.90203720082404
  H   2.37888714880797     -3.14142078664130      1.17490324624936
  H   5.29932809242209     -1.26823249384684      3.72315389797049
  H   6.09744012163998     -3.46655962393343      4.41953687350540
  H   4.91564224994529      0.09404109009701      2.36720999235218
  C   -0.34229984643321      5.68621804836883     -2.13969264079159
  C   0.77749997435207      5.10455076021064     -1.55568397905460
  C   0.92859753684162      3.72807718134501     -1.57088524758569
  C   -0.03400388045187      2.93840706398484     -2.19650280517385
  C   -1.16282733400930      3.51914941620136     -2.77152065653603
  C   -1.31662524392980      4.89546984827330     -2.73560237536918
  C   0.16293127321467      1.47503113973603     -2.21355190929394
  O   0.77898693514025      0.88552532272254     -1.32523253859926
  O   -0.31940271549639      0.76561157724263     -3.20628983662165
  H   -0.45713407625509      6.76152843396769     -2.12829526105781
  H   1.53394390263024      5.72520555903879     -1.09613574344511
  H   1.79297653395715      3.25792483339301     -1.12240156698716
  H   -1.94962769623201      2.90572515130695     -3.19394730196009
  H   -2.19563320673881      5.34974914063883     -3.17032221479277
  H   -0.74929515664988      1.32143209237326     -3.86828150235036
  C   -2.34609199764441     -0.69945724155503      3.06521179097803
  O   -1.22946476098045     -1.24417860817698      2.33451006037017
  H   -2.46133373450361     -1.23110425746655      4.00640543244806
  H   -3.25572845635205     -0.76961665255838      2.47269008152038
  H   -2.11363020364619      0.34160290980216      3.26530701230762
  H   -1.33358864968832     -2.20229682945709      2.20354977141992
  C   -0.46607125220887     -3.30915768256323      0.54953301513108
  N   0.05080184353088     -2.63167882584362     -0.25822028241120
  C   -2.09480134585277      0.39773636468569     -0.45741360320680
  N   -2.85901300710576      1.15474473333885     -0.88454086800661
