5
Coordinates from ORCA-job orca E -2353.982039114333
  Np  0.11416673386037     -0.91993278332238      0.21808426212768
  Cl  1.97875241871843      0.68422773314527      0.08783960954419
  Cl  0.95978555688041     -3.15194451986065      0.82461067221376
  Cl  -0.89926289991884     -1.08653826462296     -2.02516238616984
  Cl  -1.45895180954037     -0.17285216533928      1.96668784228421
