25
Coordinates from ORCA-job orca E -2029.439713937682
  Er  -0.16505442358597     -0.71259790384668      0.43190661766058
  C   2.43585636316759     -2.27403537818137     -0.74014670017427
  C   2.32783859662850     -0.89734966904867     -1.41786100227584
  O   3.13020793841448     -0.59126803830712     -2.26498392137257
  O   1.30998395811232     -0.18700721739463     -1.01502349321277
  N   1.70537472645778     -2.31810163078719      0.54667364258672
  H   3.48695434935103     -2.53828529485402     -0.64146107225882
  H   1.97497970511796     -2.99132722238146     -1.42008579882995
  H   2.29020101766459     -1.96598075518597      1.29842291436342
  H   1.47585434351231     -3.27279640045988      0.79535380282709
  C   -2.64179113337126     -2.76262536445138     -0.68180763204275
  O   -1.61000504393422     -1.94515372739473     -0.22707372860050
  H   -3.20318430300179     -2.27922305259177     -1.48791292090658
  H   -3.34687026415061     -2.99937995328536      0.12222977555969
  H   -2.25452578626013     -3.70860038745387     -1.07181739995744
  C   -3.73161237725301      0.44127389407202      1.42306501547277
  C   -2.93787299251144      1.27204746007658      0.44135822342991
  O   -1.52014957366391      1.20575469786943      0.72145232592079
  H   -4.79447875020973      0.50550619608791      1.19102222162180
  H   -3.58738779884570      0.79742427491971      2.44405242966423
  H   -3.42739719608705     -0.60381357864789      1.37166719166681
  H   -3.23825117968023      2.31949565270044      0.45497315451063
  H   -3.04441471312184      0.89797900671796     -0.57428773034068
  H   -1.35459167700235      1.46076682679312      1.63963214134602
  Cl  0.21343621425262     -0.24560243496518      2.90605194334167
