5
Coordinates from ORCA-job orca E -10857.607314446359
  Nd  0.16276038809720     -0.54709161076887      0.43218600701226
  Br  2.34984170056619      1.00246934144001      0.22756923131944
  Br  0.66635209625654     -3.34656181884654      0.11318131519142
  Br  -0.76277841730430     -1.88393580460371     -1.92749273225007
  Br  -1.72168576761564      0.12807989277911      2.22661617872695
