25
Coordinates from ORCA-job orca E -2266.073189155428
  Pr  0.00573496851643     -0.57947854698658      0.85592899102697
  C   1.37817840838385      1.08831570891824     -0.18194072363362
  N   1.99524045611538      1.81023199863766     -0.84044034381776
  O   1.58857728847869     -1.78103195431442      1.05581724417595
  H   2.03214725627516     -1.91394891228688      1.90480344692114
  C   -0.64693334769164      1.27099213224068     -2.94930695792890
  P   -0.84582955380540     -0.48043111436444     -2.69255519620061
  O   -0.39580127312221     -0.95277759045575     -1.30715797526849
  C   -2.56804185575027     -0.89136652780771     -2.92807939484704
  C   0.13275746483778     -1.32901714047387     -3.92733806368679
  H   -0.93835537681742      1.51535891786736     -3.97128417771544
  H   0.39127213180546      1.55076059333362     -2.77626516406032
  H   -1.27950002989109      1.81046698615644     -2.24593334902619
  H   -2.89908172467434     -0.60562003352466     -3.92574956102286
  H   -3.14966574390858     -0.35091862076614     -2.18094291067838
  H   -2.70602302878449     -1.96250187184566     -2.78815521398997
  H   -0.18099046760623     -1.04570142639287     -4.93104949110330
  H   0.02616064088321     -2.40491228166605     -3.79994249553326
  H   1.17802872036662     -1.05630237712174     -3.78533883869572
  C   -1.76303745140500      0.95814239655186      0.38299410904148
  N   -2.63550533911270      1.54808083093132     -0.09368914744087
  S   -0.14910337325830      3.05064971182383      4.01234508888547
  C   0.12177825324437      1.74913829218315      3.18459114337776
  N   0.33680885334403      0.74509340295742      2.56154040490967
  Cl  -1.61085641639028     -2.10065422854221      1.96021984604399
