4
Coordinates from ORCA-job orca E -545.316089744320
  Th  -0.77027300540584     -0.93487636224562      0.05955695744400
  F   -0.94242403811861     -1.17363603985455     -1.95391893621649
  Li  -0.37538063321786      2.34363618967477      0.16758850705184
  Sr  2.68456767674232      0.58676621242540      0.29017347172065
