27
Coordinates from ORCA-job orca E -1670.036028157909
  Ce  0.07965721414735     -0.34465815461012      1.04246056706388
  C   0.95535068958161      2.96127064127792      0.69044268310785
  C   2.16893880518319      2.04195608948570      0.68978220566281
  O   3.28548945061456      2.38471383147983      0.51464747874941
  O   1.80730084772841      0.74211570440430      0.95600959301761
  N   -0.29300427189547      2.18681938578497      0.53524466392347
  H   1.08914537270424      3.71527820195042     -0.08191373041223
  H   0.94808302352044      3.47589536629438      1.65113650850470
  H   -0.56009221469843      2.14373789135405     -0.44531937952885
  H   -1.06597641289923      2.65571007481943      0.99638304230647
  C   -2.58278955550390     -5.19093569480340     -0.48326453808217
  C   -3.56936807130024     -4.29663041191565     -0.48328233428449
  C   -3.29736497712514     -2.88839040381679     -0.72683131253351
  C   -2.04526475488094     -2.44354111666166     -0.87283408844751
  C   -0.84278594741483     -3.32747993977144     -0.72613322560680
  C   -1.18855832709979     -4.81345173612057     -0.91727395179666
  C   -1.65745263699173     -1.04436684916955     -0.65358088878097
  O   -2.18940991828534     -0.31931165361394      0.22998977124804
  O   -0.47528341193381     -0.66805418543875     -1.05262994317084
  H   -2.76453389276829     -6.23088060807513     -0.25046234793396
  H   -4.58122251676066     -4.59569691125992     -0.25254284354001
  H   -4.11683894814303     -2.18174903325670     -0.70848209861548
  H   -0.05863237473547     -3.05744640232919     -1.42680595950368
  H   -1.15045469267190     -4.98196156371109     -2.00182515819997
  S   -0.10728547616600     -2.91245838298736      0.95812415356155
  C   -0.16751682808193     -5.68347602443158     -0.32733290349441
  N   0.63296982587649     -6.36140811487777      0.13569403678578
