6
Coordinates from ORCA-job orca E -1281.825021374112
  Es  0.06874757567455      0.12584871078768     -0.00067128343647
  F   0.21835985151642      0.36627786279844      1.94539580685211
  F   0.20918747592229      0.35330415259730     -1.94900922876231
  F   -0.90376261080789     -1.55538552518457      0.00833251870724
  F   1.88349381588173     -0.63321724072295     -0.00208237063787
  F   -1.47601610818710      1.34317203972410     -0.00195544272270
