4
Coordinates from ORCA-job orca E -492.161700572150
  U   0.64271429486164     -0.43594989541028      0.80492822439746
  Li  -1.29042626921754     -0.67673412241299     -1.88664051115671
  Li  -1.27564375048282      1.94386921690650     -0.48525329568596
  H   2.51984572483872     -0.00929519908324      0.13036558244521
