7
Coordinates from ORCA-job orca E -3542.724775487598
  Es  0.00000793452407     -0.00000736556024     -0.00001211279042
  Cl  0.00515240096996     -0.00534252964969      2.45986929214496
  Cl  -0.00515849170531      0.00534950963613     -2.45988844398158
  Cl  -0.00590495269867     -2.45871359489178      0.00534142050247
  Cl  0.00590223300069      2.45870439077313     -0.00533499817183
  Cl  -2.45899148080270     -0.00590421778309     -0.00514063481605
  Cl  2.45900235671195      0.00590380747555      0.00515547711245
