6
Coordinates from ORCA-job orca E -839.100716867490
  Fm  0.09883474962181      0.09687946653715     -0.00283099036686
  H   0.22882948810737      0.35951640671420      1.99275109326656
  H   0.16455722728537      0.33599863396918     -1.97637978021569
  H   -0.97005952575301     -1.47293317418289     -0.00760378366937
  H   1.96368880973123     -0.64070877791315      0.02705351422837
  H   -1.48584074899276      1.32124744487551     -0.03298005324301
