5
Coordinates from ORCA-job orca E -1970.896407652715
  Lr  0.32953868469729     -0.37586116074770      0.74330875270021
  H   1.51283680469400      1.29587375613827      0.18519013216719
  Na  0.69429944811025     -4.47408861236514     -0.82678805259264
  P   -0.25702410558867     -1.83877893797351     -1.18677463117229
  Cl  -1.58516083191287      0.74581495494808      2.15712379889754
