5
Coordinates from ORCA-job orca E -753.154741673724
  Np  1.20992163156308     -0.02924702954818      1.01184754962126
  N   1.39558798782776      0.37132990800596     -0.73393235955675
  Li  -0.12750959533919     -3.18989183389340      0.83903657345925
  Na  -0.59554357953306     -0.76231562109514     -1.51599779480698
  Be  -1.18796644451859     -1.03691542346922      1.47110603128321
