4
Coordinates from ORCA-job orca E -1397.605424215217
  Dy  0.74009584553173     -0.06910475271431     -0.14031782224998
  B   -1.47450743017844      0.04747962533046     -1.55472890055160
  In  -2.24231773533635      1.80221384634142     -0.43442772747753
  I   3.57321931998305     -0.95869871895757      0.69287445027912
