7
Coordinates from ORCA-job orca E -2871.521977147109
  Tm  -0.00021217454774      0.00095299111850      0.00124646813710
  I   0.64605174931654     -0.26670200754112      2.87658879459557
  I   0.29332721638230     -0.63444407671741     -2.86790139335341
  I   -0.29645854051631     -2.87076763528884     -0.62023253547762
  I   -0.64317839875848      2.87578424984063     -0.28012445410664
  I   -2.86951359391287      0.61437460653705      0.28089880264017
  I   2.86999374203654      0.28079187205117      0.60951431756485
