5
Coordinates from ORCA-job orca E -11026.883442914615
  Cf  0.14723198076591     -0.92900255996151      0.21156873324338
  Br  2.08008592297863      0.74262983307337      0.09937702789174
  Br  1.01931199701545     -3.24129067684107      0.86655905693959
  Br  -1.00596169504489     -1.06663821328853     -2.06585106557039
  Br  -1.54617820571510     -0.15273838298226      1.96040624749568
