4
Coordinates from ORCA-job orca E -1900.530462148825
  Lr  0.11451986007210      0.14772889262039     -0.27635606112571
  I   -1.16025898511645     -1.64992196270224     -1.98223429742842
  I   -1.14607519715943      2.53671530828383      0.40286658585051
  I   2.78830432220378     -0.21263223820198      0.41912377270361
