42
Coordinates from ORCA-job orca E -2143.089102000483
  Dy  0.10779592872519     -0.53516925687583      0.26362298357967
  N   0.08544467591237     -0.19971456256333     -2.26788352509546
  C   -0.77667550774121      0.89179423284589     -2.73316330550384
  C   -2.01484727881915      0.98091463029746     -1.85066332763513
  N   -1.70687442475292      1.12263789073110     -0.41715269350927
  C   -1.49915092165503      2.48115655486111      0.09098753919162
  C   -0.08157530142529      2.98910800100336     -0.14456729795402
  N   0.89324392510393      1.99531447575412      0.31934868454385
  H   0.95650198199832     -0.21444762009096     -2.78398294899579
  H   -0.37182760344624     -1.11102428521947     -2.44042057891182
  H   -1.11254475739663      0.74544420837892     -3.76424034920884
  H   -0.21016443024075      1.82232275952342     -2.71302145661449
  H   -2.56534120380356      0.04522645083435     -1.95597625375772
  H   -2.65686962205214      1.79855265454738     -2.19767229633471
  H   -2.46291122722580      0.68415302616942      0.09587828254755
  H   -1.67579801540419      2.44634412341741      1.16792553426929
  H   -2.21370424318577      3.19226625767311     -0.33987131948521
  H   0.02305632292520      3.95406286042843      0.36106120113470
  H   0.08934660696238      3.16999081029451     -1.20450522759454
  H   0.85978241788887      1.90823216655594      1.33471554814154
  H   1.83558811720704      2.26119568474865      0.06488430004463
  C   4.15547728404770     -1.99766478720688      2.29356820936701
  C   3.08961748392344     -2.02992257686658      1.22131882990743
  O   2.43048213731258     -0.75350189128242      1.10924189842573
  H   4.66446430227717     -2.96005138082221      2.34583988854085
  H   3.71543465121388     -1.80023042754077      3.27287339073778
  H   4.89474663850745     -1.22491980014817      2.08490047884073
  H   2.34686299937963     -2.80628793020404      1.40958409446206
  H   3.51584936707279     -2.22352252924368      0.23959669384210
  H   2.04224362635372     -0.49998368660252      1.96866912503967
  C   -0.43706335433512     -1.80670380155922      3.65486878041363
  C   -0.39797253712517     -0.28939499093077      3.53493737673098
  O   0.20915889137891      0.12554384663420      2.34081857950884
  H   -0.90619315187722     -2.12131323906806      4.58881687676371
  H   0.57544231882484     -2.21796919392851      3.63113230622402
  H   -1.00210284173823     -2.24192469606412      2.82757143997586
  H   0.14028017208423      0.13000493313712      4.39522242830517
  H   -1.42442090583502      0.09792861207557      3.59724553371540
  O   -1.71844702801689     -1.71896169451988      0.02194930207195
  S   -1.06856303339111     -2.98740350430955     -0.69026457210321
  O   0.43941435332220     -2.64205254326958     -0.37912621263506
  O   -1.25298681295445     -2.75642978159494     -2.14246794098675
