4
Coordinates from ORCA-job orca E -1360.810112697535
  Am  -0.18258063616585     -0.21700884926700     -0.00787236490777
  C   -0.61973291923677     -1.34864851375980     -1.74079994728471
  Te  -1.18190393854178      2.71629651139490      0.27159857225377
  Cl  2.58070749394440     -0.32874914836810      0.04047373993871
