4
Coordinates from ORCA-job orca E -3877.656401869512
  Gd  0.02385371705487      0.12976193097266     -0.44726307662873
  Sb  -1.43482540065317     -1.87812629212685     -2.17574136923039
  Br  -1.05638619636556      2.62652026399005      0.55084287642799
  I   3.06384787996384     -0.05626590283587      0.63556156943113
