25
Coordinates from ORCA-job orca E -1075.743680678806
  La  -0.17299028285498      0.04346890263398     -1.03283487143153
  C   2.70145774757056      0.14882600110695     -1.68298224918243
  O   3.79519363131760      0.07011799599604     -1.89798160549095
  O   -0.49916883732930      0.20122124713052     -3.14527341031682
  H   -0.54498365221390      0.06466708782294     -4.09049218092669
  C   1.47399949996861      4.84242501406381      0.81255348026353
  C   0.87229489406660      4.74472404951360     -0.43289787180630
  C   0.42744069418054      3.50850585293586     -0.85804779674629
  N   0.55133080708959      2.39912131365377     -0.11407218870582
  C   1.13816308442651      2.50329915876461      1.08785626136931
  C   1.61034962354192      3.70054500024087      1.58753923157062
  H   1.83418801792755      5.79558533130873      1.17351406423300
  H   0.74979429016610      5.60876851961417     -1.06864341874159
  H   -0.04089422667333      3.39281220288704     -1.82846485361818
  H   1.23544599305801      1.59032035427137      1.66519767718799
  H   2.07609409074046      3.73197570315089      2.56109844290677
  C   -2.62381153423327     -1.66994619226850      0.92734132618810
  O   -2.44789639805204     -0.67236840273511     -0.12009693897401
  H   -3.10007632584765     -2.55459452192357      0.51406005162163
  H   -3.21977791123133     -1.25151484252058      1.73359332138946
  H   -1.63130180876320     -1.92740424962081      1.28407497089766
  H   -3.30180850782558     -0.49285314617415     -0.52402995949794
  S   2.26612180192103     -3.80922643304923      1.29280252685529
  C   1.46062981778823     -2.62354738256234      0.63612242531203
  N   0.84760549126121     -1.72072856424096      0.14676356564317
