59
Coordinates from ORCA-job orca E -3007.963995559453
  Tb  -0.50485500204319     -0.58177906257276      0.31742597731898
  C   0.05144923933229      3.34731662233509      2.95344533119430
  C   -0.29911892545183      2.09758204789468      2.46765058922439
  N   -0.03499834520756      1.74251547927958      1.20533625598631
  C   0.58019209232920      2.64682848405121      0.43672081048045
  C   0.92446423005780      3.89460258295197      0.93818848155444
  N   0.66327755820537      4.24510159967521      2.19037781853901
  H   -0.16826791757178      3.62707559140993      3.97553303833097
  H   -0.80209476540898      1.37660171510906      3.10178279591321
  H   0.79395365095338      2.38151874466877     -0.59143209629095
  H   1.41902986958007      4.62339630369791      0.30927711018364
  C   6.68002346797750     -1.50394995666336      1.39864991225632
  C   5.89963781030485     -0.35420552253977      1.42326142759550
  C   4.55363571932597     -0.43042802778307      1.12117881254236
  C   3.98626858653436     -1.66178595958541      0.78210067960948
  C   4.77627636195980     -2.81592453793986      0.76253051279613
  C   6.11999304302514     -2.73385045977935      1.07254525790901
  C   2.56315812488251     -1.69715014531493      0.46479522506914
  O   1.79627704839989     -0.74192235853356      0.66283478599834
  O   2.00457693904538     -2.77725027603938     -0.05504734008190
  H   7.73262094152027     -1.44351984419654      1.63811781606370
  H   6.34460082435209      0.59689903251218      1.67770923625467
  H   3.93421561809957      0.45499864028903      1.13329038631925
  H   4.36352079890622     -3.79308085090041      0.53855491706945
  H   6.73086862724343     -3.62472614098476      1.06593305526884
  H   2.64602355748068     -3.47225752739581     -0.25144689391071
  C   -1.07534350281373     -1.71981663544895     -4.12631984452735
  O   -0.71732087068222     -0.33413488495688     -3.88314414832575
  P   0.00784166345279      0.14649773163438     -2.56308349766399
  O   0.62741566448476      1.53650724018028     -3.04720522229643
  C   1.48852392732604      1.59745897413637     -4.21203969771544
  O   -1.18327926225405      0.77715171297136     -1.59460129956229
  C   -2.21984755222339      1.67278088907005     -2.09694749720508
  H   -2.13937282768616     -1.83831397880009     -3.94431748794250
  H   -0.50755878973589     -2.38317268026544     -3.47633413616416
  H   -0.84610902842017     -1.92294334926822     -5.16643262902999
  H   0.92550639014193      1.32697240963625     -5.10028366331953
  H   2.34323889076126      0.93379465926611     -4.08788525170982
  H   1.82884233888428      2.62399900520252     -4.28263136069642
  H   -2.45260900261901      2.37583821204967     -1.30206206571034
  H   -3.08971705750749      1.07894721659001     -2.36087078502175
  H   -1.84338239754564      2.21093185662513     -2.96152097851523
  S   -4.23485943542998     -1.82680391215173     -1.60981367266776
  C   -2.73883847227427     -2.08800434491240     -1.13497401475286
  N   -1.62120909201953     -2.22841208558999     -0.74518993586374
  N   -2.82020645855549      0.10208845553126      1.08682978142253
  H   -3.00552020588289      1.09941874502580      1.14947976465862
  H   -3.12768265895134     -0.28908611307297      1.97389665669105
  H   -3.48035998224766     -0.26205361524735      0.39196595438310
  C   -1.35858954773896     -3.76591264273785      3.65551688807775
  C   -1.34288612118194     -3.01106798386905      2.48975134552529
  N   -0.53849011613872     -1.94810573324743      2.37508367355829
  C   0.24868127445143     -1.65582286373017      3.41920648484835
  C   0.21565123850579     -2.41970573626832      4.57365211145376
  N   -0.58722768229076     -3.47127355430008      4.69305717835940
  H   -2.00954148637833     -4.62568497158337      3.74480831506317
  H   -1.96121947540514     -3.26333891814607      1.63829946326010
  H   0.91902802942214     -0.80984087375628      3.32446837811689
  H   0.85051245471955     -2.17809840421197      5.41612729007767
