25
Coordinates from ORCA-job orca E -1305.958698981870
  Dy  -0.23358655672564      0.46980716708551      0.15503623200659
  N   1.89445085096792     -0.48641027883764      0.70894759348454
  C   2.25470963326364     -0.00871058441255      2.09730455443514
  C   1.08793341278543     -0.24161196453535      3.03332627033047
  N   -0.12123753216329      0.52664625488211      2.54996359141776
  H   1.89109136702403     -1.50954059853138      0.72307557438347
  H   2.67055631431131     -0.26323296622234      0.08041618191450
  H   2.51583766838783      1.05009769777405      2.03558376045442
  H   3.13874926350169     -0.53554075571448      2.45475143781344
  H   1.34613683934917      0.06802390331452      4.04494737660593
  H   0.81955033354568     -1.29781169908711      3.07370053976837
  H   -0.03879988357644      1.48820053789293      2.89191047372542
  H   -0.94174033895814      0.17167895628557      3.04573966419276
  O   -0.20898234987398      2.65993459213001     -0.55221212223205
  H   -0.98102051639480      3.20170589956330     -0.79738169301628
  H   0.55364109125279      3.24387567754346     -0.71391133187670
  C   -0.84172344700327     -1.44128460236583     -1.90294749913190
  C   -2.19927274186210     -1.55186043985143     -1.25205486841066
  O   -2.18002975876454     -0.59597642593544     -0.09512582065203
  H   -0.77371154621032     -2.12202493277477     -2.75455577719552
  H   -0.02295273387102     -1.77461349976996     -1.24119224614410
  H   -0.65790599703447     -0.44807950113728     -2.34747419026224
  H   -2.39176578000933     -2.54226759501965     -0.84883495290329
  H   -3.00337882190412     -1.24277061718852     -1.91424228387903
  H   -3.04634877003825     -0.58093422508792      0.34212953517111
