4
Coordinates from ORCA-job orca E -2265.707392247490
  Dy  0.07372041711324      0.11915913731118     -0.20011281478420
  Cl  -0.95406937512286     -1.41508379253647     -1.80439294531690
  Cl  -0.97224834442272      2.27798865496912      0.29014284993769
  Cl  2.44908730243234     -0.16017399974384      0.27776291016341
