42
Coordinates from ORCA-job orca E -1592.858762210309
  Nd  0.26517486671903     -0.74570078061655     -0.79855754212996
  N   1.39339763774124     -2.02982759101003      1.16070385174588
  C   2.01257723694907     -3.17612736206415      0.86737085006822
  C   2.73890538490007     -3.89417284659228      1.80080412456797
  C   2.82876415865246     -3.39061856382438      3.08570370511668
  C   2.19080530194670     -2.19925970305441      3.39409832929566
  C   1.47275352664749     -1.54033036936492      2.40802270379640
  C   0.74916334030373     -0.25964145719932      2.66232078755841
  C   0.63790419316645      0.29740363655401      3.92831870603478
  C   -0.05538336982669      1.48658624224242      4.08495532672828
  C   -0.62534447147652      2.08998863027898      2.97758757653080
  C   -0.47886557876548      1.46886135297722      1.75060167825579
  N   0.19130005084745      0.32673886284497      1.59371778862084
  H   1.91304539235624     -3.51291201214723     -0.15710736527290
  H   3.21998481243820     -4.81872037803441      1.51939677299803
  H   3.39073711958581     -3.91573397461848      3.84534893565005
  H   2.26369374434246     -1.79572875232380      4.39149126865364
  H   1.07331355749518     -0.18529232632609      4.78879150408939
  H   -0.15130859744069      1.93198493439033      5.06526646214114
  H   -1.17603679610567      3.01520854320492      3.05750721133140
  H   -0.91817729570449      1.89504456016573      0.85580502145791
  C   -4.20610055440999      0.53225162475214     -0.79782960231575
  C   -2.74208271769775      0.72062955795646     -1.05589399651403
  C   -2.28247000741121      1.91754111494998     -1.62166887617952
  C   -0.95354441537926      2.17246357332360     -1.97838736468842
  O   0.01765008045570      1.37275833546670     -1.77061139406868
  C   -0.60781864675244      3.46397347634586     -2.66016229681215
  O   -1.98395860984230     -0.25179438047033     -0.74056534913656
  H   -4.79100489704213      1.41297704014228     -1.04497063225917
  H   -4.35279975044656      0.27280236772142      0.25054631938364
  H   -4.55733819161424     -0.31384011377109     -1.38910319129027
  H   -3.01544043104715      2.67361160777054     -1.85474821065379
  H   -1.46392566786569      4.12289775481723     -2.76857207552918
  H   -0.20066567216344      3.24021307634710     -3.64684732032726
  H   0.17395093337090      3.97001427442499     -2.09333361257072
  O   0.83958916650327     -2.27080997401344     -2.13376283594339
  H   0.87506576954328     -2.88753554557653     -2.86205502695250
  C   3.16700960980376      0.71781078592083     -2.08851218936837
  O   2.60258300350687      0.25798914308413     -0.93322632736947
  H   4.18956414864008      1.06583341021536     -1.95868269954032
  H   2.50699542834454      1.51764794420812     -2.46942995819144
  H   3.08993720673167     -0.06638571909788     -2.85863105691112
