40
Coordinates from ORCA-job orca E -1946.293459240961
  Nd  -0.08322907651844     -0.42333545309246      0.47634794222857
  N   -0.08967952757503      0.20947169073256      2.90782850548996
  C   1.07966033143915      1.11270011881231      3.20993124719669
  C   2.33289549312975      0.53753369533276      2.59138673606794
  N   2.21043800988561      0.43867066757182      1.09529648498019
  C   2.44282460561512      1.75625104117026      0.39743756522576
  C   1.17242634110601      2.32927504872982     -0.20253791120307
  N   0.56158457874413      1.34263011257579     -1.15315695714952
  H   -0.94058230202542      0.68503926177171      3.21334007553708
  H   -0.02701523562625     -0.58846869893704      3.54302281894370
  H   1.20754767507500      1.22041228430636      4.28616335639802
  H   0.85236855502355      2.10379368401893      2.81734166920968
  H   2.51978517270705     -0.46716099545201      2.97715824115489
  H   3.19922585364118      1.14411908853334      2.85736192581858
  H   2.97432445845285     -0.16919015684832      0.80643854136425
  H   3.18158439456058      1.60061878469631     -0.38959328877352
  H   2.87492829025156      2.47537364476584      1.09311404465668
  H   1.39288716323996      3.27124174500551     -0.70477673791080
  H   0.42505900396007      2.56348994491134      0.56572490704308
  H   1.24586268199947      1.11890406604724     -1.87759163791640
  H   -0.19111184588505      1.80227674723050     -1.66631191819482
  F   -2.71442237725731      1.64999649627815     -1.55139747873418
  P   -3.28492460585647      0.72203515476937     -0.46245061516519
  F   -2.09912531435578      1.08664607859400      0.67498315031618
  F   -2.34248084663144     -0.58909041850224     -0.84360480478028
  C   0.44466094034245     -7.70704203180294     -1.42922742459687
  C   0.73354819998936     -6.52737841568945     -2.07816241491513
  C   0.37626250410746     -5.26029801918960     -1.49548816357092
  C   -0.31272220447265     -5.18645009546151     -0.27535270364733
  C   -0.59580700139578     -6.37329625223338      0.37647107638630
  C   -0.21173571919008     -7.64528557807410     -0.20414361316072
  C   -0.69518837837509     -3.86135855235397      0.29231566578044
  O   -0.09636859055842     -2.80553031227914      0.01689886511558
  O   -1.69427450748754     -3.76226967769131      1.12259014035396
  H   0.71591981574181     -8.66314013762817     -1.85849549219993
  H   1.23592416493759     -6.53039186900130     -3.03811026747059
  H   0.64306046162699     -4.35672505833770     -2.02845919327642
  H   -1.07939097083039     -6.40701276977742      1.34694462003419
  H   -0.45519241609369     -8.55127595551212      0.34005485726179
  H   -2.22972777544198     -4.56127890798942      1.25150818610210
