31
Coordinates from ORCA-job orca E -2127.037626062170
  Eu  0.03925357280272      0.04667476266928     -0.74199371827463
  O   0.81316729291216      2.31814243371958     -0.77422413576222
  H   1.57050516318289      2.76892128710788     -0.38122686538241
  H   0.40500853999648      2.94680975018064     -1.38617385414779
  C   3.71330470525908     -0.55367537587911      2.26135975516878
  C   2.45239258185290     -0.23897869217030      1.78009910266845
  N   2.16997812422579     -0.33526995970765      0.47323551361060
  C   3.15511299162014     -0.74840918870924     -0.33849484630849
  C   4.41024605696555     -1.06240877232045      0.16279868990808
  N   4.68602146119868     -0.96432324707765      1.45653620188709
  H   3.93798875702537     -0.47180820866041      3.31692541796298
  H   1.66870970265043      0.09296699762800      2.44798876697708
  H   2.94714273864082     -0.83035739494118     -1.40141242923516
  H   5.20172680685986     -1.39681515509879     -0.49497007513629
  F   -2.36464937763260     -2.86505665680395      0.92577662178258
  P   -1.04112230346369     -3.60575599294780      0.55978859422122
  F   -0.23133040537371     -3.26048253209070      1.84706128257037
  F   -0.42431910440062     -2.26164623080333     -0.28750676680787
  C   -1.24042134141406      0.46852885652514      2.09262905836098
  C   -2.53584066260018      0.58701738511619      1.32623058708793
  O   -2.17529632361037      0.46341299440549     -0.08370715886444
  H   -1.41538747486315      0.55464585990764      3.16360260058303
  H   -0.55102772781459      1.28195274991102      1.83055098457026
  H   -0.77455668996155     -0.51587511103094      1.94728729732867
  H   -3.00736613811774      1.55438736357087      1.48061767058969
  H   -3.23396255828405     -0.20766962980713      1.57778087043245
  H   -2.91779923514133      0.66485556603533     -0.66719947486621
  N   -0.30231905917109      0.35334690217285     -3.46155379666697
  O   -0.39412787816442      0.43919152614832     -4.62188097744371
  O   0.56702544387231     -0.42826406923483     -2.86766588276836
  O   -1.02675765905222      1.00024178218523     -2.61315903404582
