7
Coordinates from ORCA-job orca E -1236.818173932990
  Cm  0.00000407882704     -0.00000469410106     -0.00001293932724
  F   0.00000380233416     -0.00000189083186      1.98159722965753
  F   -0.00000329229912      0.00000502995989     -1.98161572338402
  F   -0.00000018341095     -1.98161046441303      0.00000373322616
  F   0.00000009852565      1.98160460460174      0.00000657111198
  F   -1.98160428018695     -0.00000143361846      0.00000689635534
  F   1.98160977621017     -0.00000115159722      0.00000423236025
