4
Coordinates from ORCA-job orca E -1569.178271490336
  Ac  0.15338647854425      0.21171596091569     -0.36321396855469
  S   -1.15121519062455     -1.65262164087345     -1.93621669830135
  S   -1.16736633479214      2.51060481778307      0.42686378971276
  S   2.76168504687244     -0.24780913782532      0.43596687714327
