6
Coordinates from ORCA-job orca E -1137.256060065418
  Cm  0.12391522807842      0.21430760008502     -0.00103826095500
  F   0.19679424621702      0.33247150703959      1.98012857227575
  F   0.18499331041177      0.31462460002444     -1.98371300212087
  F   -0.87983450327841     -1.50530368486454      0.00854629842081
  F   1.89539851077327     -0.68364312687714     -0.00216202887955
  F   -1.52125679220206      1.32754310459263     -0.00175157874116
