22
Coordinates from ORCA-job orca E -4157.524791669694
  Gd  0.76586846030183      0.53522417250241      0.33521840410221
  O   2.75712857809856     -0.08820268640814     -0.96192030518964
  H   3.29238687957949      0.64697534461048     -1.28585851524568
  H   3.27715927100449     -0.88774945135827     -1.09165451548656
  Br  1.08890047077483      0.07332781315235      2.89714189745958
  N   0.84938228654333      3.31804536425923     -0.04595647070200
  O   1.81636649481968      2.58311249467905     -0.33178404620315
  O   -0.12810777676708      2.69552966664444      0.43413300915306
  C   -3.88582530894861     -0.04656185192567     -0.81245150779651
  P   -2.72163165133194     -0.20715463220817      0.53089013061294
  O   -1.28644415164176     -0.21068383652850     -0.01464734164277
  C   -2.96030759047581      1.15370266365756      1.66299125146928
  C   -3.05415824434742     -1.72943470183457      1.40186977933580
  H   -4.90716009408898     -0.05712927951890     -0.43327294512418
  H   -3.75299344860396     -0.87296110552109     -1.50924264857560
  H   -3.70820340295676      0.89252577899576     -1.33491725615851
  H   -3.98775087322992      1.17268376282077      2.02543114205436
  H   -2.73810590340478      2.09360945131685      1.15796352885525
  H   -2.28557201854501      1.03975381751947      2.51237785107235
  H   -4.07203906916793     -1.73176100895865      1.79054151985179
  H   -2.35426451871333     -1.82713385998918      2.23152091500981
  H   -2.92702838889875     -2.57291791590730      0.72472612314812
