4
Coordinates from ORCA-job orca E -844.399219333734
  Th  -0.19367287598479      0.91863723344244      1.00915237310587
  Na  -1.41716083757657     -0.29434749300207     -2.66004584637835
  O   -0.77578484374594      0.30716116867680     -0.71522670682726
  Mg  2.98310855730731     -0.10956090911718      0.92952018009974
