4
Coordinates from ORCA-job orca E -975.031686698460
  Th  0.09390732628520      0.19176860989260      0.23009253881256
  Mg  -0.83349462965096     -2.13725259405693     -2.35545970284139
  Te  -0.83195352071564      2.89438237272992      0.60383726812302
  F   2.16803082408140     -0.12700838856559      0.08492989590580
