4
Coordinates from ORCA-job orca E -1046.930166655950
  Cf  1.20034559920486     -0.43159087447638     -0.12593689274274
  B   -0.69105706770285      0.76060738316045     -0.55187259485335
  Sn  -2.52982724155545      1.91700082806947     -0.97024579903917
  O   2.66050460267934     -1.38031604243605      0.21365098913944
