22
Coordinates from ORCA-job orca E -1880.009204822888
  Er  -0.36174524474166     -0.32087559811824      0.08891714201389
  N   -0.59394344934857      2.25662211264021      0.94122648541407
  O   -0.69480762447521      3.37202263357077      1.32867799729406
  O   -0.73738739714659      1.23663841202608      1.71685137255174
  O   -0.33120116188163      1.95843405906355     -0.27706460160479
  C   5.54631893651945     -3.76801727055036     -0.02779279056182
  C   5.28510211631635     -2.82202231298842     -1.01080799794508
  C   4.09985407491916     -2.10693893583314     -0.98261718304360
  C   3.18248532635908     -2.33894114149385      0.03766332667956
  C   3.44466132197621     -3.28347317829901      1.02544366575340
  C   4.62830835818242     -4.00050273144004      0.98833214671442
  C   1.91553827429235     -1.58218164681887      0.07037660716050
  O   1.09488853437278     -1.74013807054515      1.03652096557991
  O   1.62074868530768     -0.76776463469172     -0.86565609079526
  H   6.47134991555102     -4.32828794465148     -0.05415744004080
  H   6.00486594620069     -2.64489836174524     -1.79780026552847
  H   3.87224547713828     -1.36860948248856     -1.73822272582795
  H   2.71576617259875     -3.44573537342746      1.80654417191750
  H   4.83691648955052     -4.74004634466837      1.74885008407212
  N   -2.00803742152637     -1.27601354673468     -0.82790910456187
  N   -2.90725731991467     -1.80958742961616     -1.42701937205167
  N   -3.75019844484316     -2.30621195822433     -1.98508133200839
