20
Coordinates from ORCA-job orca E -1565.922031100694
  Sm  -0.00965370077324      0.84590272957144      0.56295331480413
  S   4.28007081656235     -0.25529168612348     -2.17992937818913
  C   2.89851980426134      0.13783154910474     -1.41098161975008
  N   1.90649474511088      0.41673918283090     -0.86233270307315
  C   -4.81561686851095     -0.74783532526309     -0.25630608611102
  C   -4.05722881089349     -0.47773646641743     -1.38923056276398
  C   -2.76319836269795     -0.03493870708603     -1.23194447892056
  N   -2.20658619398325      0.14341273385563     -0.01633646059390
  C   -2.95086961460670     -0.12475873554842      1.07935114426941
  C   -4.25248209393781     -0.56719530303639      0.99980578446400
  H   -5.83452255415047     -1.09708558017542     -0.35205657731984
  H   -4.46356655128299     -0.60900653154864     -2.38104209749974
  H   -2.14601490302732      0.18531462825339     -2.09461771284367
  H   -2.47740212234408      0.01347970949487      2.04749901529813
  H   -4.80875179272221     -0.76872740696569      1.90315645217107
  C   0.42197518402486      0.95672931068870      3.33126047469785
  N   0.34009655571075      0.03823081383678      2.59721540445101
  O   -0.00078253946730      3.03357893813975      1.44415582641380
  H   0.16304759687983      3.03515848805396      2.40758721321737
  H   -0.10042859415212      3.95129765833438      1.15739304727829
