27
Coordinates from ORCA-job orca E -1903.858151997523
  Tb  -0.23920438547719      0.71074358662867      1.53376777753088
  C   3.56253198627177      0.97680771513148     -1.15396560917102
  C   2.36364883630586      1.18133840673803     -0.48848595549057
  N   1.84694322215417      0.23031016871963      0.29831814696314
  C   2.53441467079104     -0.91034779320809      0.42206185538079
  C   3.72990406716751     -1.09495962135719     -0.25290413416162
  N   4.24256913912131     -0.15691635474004     -1.04038407027432
  H   3.97826383419879      1.74841169944224     -1.78801731628306
  H   1.81834776767700      2.11303216188931     -0.57432368240830
  H   2.12917347506608     -1.67402467673310      1.07317940739303
  H   4.28330998355083     -2.01896116047225     -0.15168353555193
  O   -0.09853105898714     -0.35442520330551      3.22053095662267
  H   -0.02801616615869     -0.61617570576709      4.13710372198389
  C   -4.65428574470282     -0.62779144826737     -0.86457070390898
  C   -4.07475465192658      0.61758244931485     -1.05401940248333
  C   -2.89010545104348      0.90117690197248     -0.40530230688797
  N   -2.27939480783787      0.01596837039201      0.39984062135055
  C   -2.85004764987453     -1.18532612329219      0.58365924226903
  C   -4.03175171767791     -1.54517651401763     -0.03073144378886
  H   -5.58311239032418     -0.87945513164158     -1.35721506885818
  H   -4.53147489759180      1.36177362030620     -1.68896580616365
  H   -2.41066830086056      1.86699289813436     -0.51612039320795
  H   -2.33964540377699     -1.86654115003751      1.25336928130734
  H   -4.45488185680966     -2.52237711490757      0.14699477271832
  S   -0.26505936068945      5.64751813431881      1.28580041177321
  C   -0.26245574131566      4.07784758804232      1.29966165596619
  N   -0.25961739724977      2.87887429671666      1.29530157738064
