21
Coordinates from ORCA-job orca E -713.595733273144
  La  -0.25059247999185      1.02924863224894      0.50860303952282
  C   1.28795731225166     -0.22844399279869     -1.23979363770162
  N   1.95036707260897     -0.80199210805013     -1.99863266628591
  O   0.34068970244889      0.06287671932427      2.37424186783740
  H   0.43964204188600     -0.45360114418194      3.16848221341876
  C   0.24301866371413      3.60498057492939      0.83424649880874
  N   0.41806092201343      4.74053884998234      0.98638327848658
  C   -7.14013613553259      0.30272300941114     -1.41267284764738
  C   -6.20592537270200      0.70630112942791     -2.35760681794391
  C   -4.87448441597498      0.84886909916393     -1.99842248964332
  C   -4.47631519507263      0.58743981419059     -0.69317750371838
  C   -5.41131304928952      0.18349303725538      0.25183788344319
  C   -6.74274789211239      0.04153888878265     -0.10793471604373
  C   -3.03402765833627      0.73988835445930     -0.30752098191235
  O   -2.20468637816214      1.11353297772867     -1.17756486453610
  O   -2.69259621781343      0.48349965810963      0.88485298564440
  H   -8.17973737951289      0.19189063860050     -1.69358106861553
  H   -6.51663114226766      0.90958820216165     -3.37403062400189
  H   -4.12591662439436      1.16120153527235     -2.71295892407084
  H   -5.07434459105902     -0.01293321251533      1.25997287864005
  H   -7.47168118270094     -0.27264066350270      0.62767649631910
