36
Coordinates from ORCA-job orca E -2522.625767017310
  Ho  0.13448571406060      0.80546773551562      1.15252411806333
  C   4.08962518376523     -0.15301037620889     -0.98117232983595
  C   2.93844344320170      0.43490385948785     -0.47588068832581
  N   2.10201382156379     -0.26184094376957      0.30879003567987
  C   2.42811963514801     -1.53549184790614      0.58063737761162
  C   3.58221836156797     -2.10068374637584      0.06635305151698
  N   4.40852361593145     -1.41176119307168     -0.71281875855457
  H   4.76235480177500      0.41031378922423     -1.61443982114174
  H   2.68256354906874      1.46283745618742     -0.69779850002878
  H   1.76297008270925     -2.10979098786453      1.21460937000487
  H   3.84253477632581     -3.12724117241384      0.28825424453690
  C   0.02290840348264      1.28742379084989      6.08532341667122
  C   0.10128235115819      1.07736927896148      4.65625055783075
  N   0.16026568778024      0.91234161953014      3.52112832146288
  H   -0.41710057642997      2.26519141537170      6.27878985420746
  H   1.02465370975241      1.24583882365739      6.51129544924546
  H   -0.59835617624436      0.51053026492027      6.52940035704726
  S   0.12100890051102      5.10550686605944     -1.04705466900822
  C   0.21737043654128      3.74062464661308     -0.31616514521887
  N   0.28584579741962      2.67091713692956      0.24812974132032
  C   -4.60846777328409     -1.57127555052457      0.37618039833180
  O   -3.45255065845964     -0.96846236995853      1.03901770887896
  P   -2.61605100922559      0.26042767608914      0.56668955473575
  O   -1.26199720439184     -0.41189965913401     -0.21468622615992
  C   -1.33091926156120     -1.30246461430674     -1.37222276693805
  O   -3.47553806549306      0.85395121143779     -0.61145494260921
  C   -3.19330348346337      2.16165169050101     -1.18566450909280
  H   -4.99276284789042     -2.30145581242768      1.07752982590268
  H   -4.29300832269343     -2.05373551752499     -0.54422656638270
  H   -5.34911284958216     -0.80576375498669      0.17228190951474
  H   -2.04823794942147     -0.90067928434271     -2.08223233249454
  H   -1.63173598336202     -2.28927056207705     -1.03222468687269
  H   -0.34245722376648     -1.33713944041970     -1.81827924931986
  H   -4.12681664154056      2.51421099221501     -1.60777222223432
  H   -2.44353915085135      2.05684354560492     -1.96581423828098
  H   -2.84843309410191      2.84961503415714     -0.41537764006394
