4
Coordinates from ORCA-job orca E -1407.405752285370
  Np  -0.06933069858344     -0.12258013965219      0.20576394008667
  I   -1.07290299924781     -1.50815562019187     -2.10482440842270
  I   -1.06760098370696      2.57371207049351      0.21729905081960
  I   2.80632468153822     -0.12108631064945      0.24516141751644
