4
Coordinates from ORCA-job orca E -1598.912102491298
  Pa  0.19196732923230      0.26852592705507      1.41284941167435
  Ca  -0.60746488721151     -0.89320688712266     -1.67149818334706
  Sb  -1.12252237146340      1.84698030114341     -0.58951558970405
  Sb  2.13450992944261     -0.40040934107582     -0.58843563862324
