6
Coordinates from ORCA-job orca E -1920.372054032259
  Ac  0.13549452108724      1.60841279673998      0.21797799186286
  Al  1.40258858305286      0.43533419333975      2.79868622316539
  S   0.67459713508372     -0.26691583793575     -1.65274127994372
  Li  -1.53309928064622     -0.64250771216304     -1.71977799782123
  K   2.29917988807182     -1.85617350731246      0.34262158424808
  I   -2.97875084664940      0.72185006733153      0.01324347848863
