45
Coordinates from ORCA-job orca E -5365.963489100354
  Lu  0.88872201961471     -0.09432739586100      0.71719050152889
  N   -1.62449620804711      0.28362822071574      0.69564428866831
  C   -2.25991307859699      0.46535851359948     -0.46057990886650
  C   -3.63981080131647      0.39388816108681     -0.58413616927015
  C   -4.38670436394868      0.10573185931833      0.53698979748384
  C   -3.73410311757139     -0.07957413213078      1.74700713980379
  C   -2.35375760779538      0.02869049352824      1.79208461208681
  C   -1.59720252087679     -0.12499978016763      3.06107588010034
  C   -2.22306997586589     -0.03874093812796      4.29965832435766
  C   -1.46245702064984     -0.16513519114365      5.44725553062213
  C   -0.09986665316762     -0.36668416848396      5.32682732348544
  C   0.44971730843800     -0.42817528582089      4.05829250631794
  N   -0.28041593603055     -0.31558459794437      2.94807183898256
  H   -1.62984249109240      0.65881055363949     -1.31379377220441
  H   -4.09072892135414      0.52449113788686     -1.55608161680248
  H   -5.46291223715348      0.01095572615357      0.47883532782867
  H   -4.29507939582727     -0.32870455465677      2.63453776621819
  H   -3.28326583843422      0.15000795533129      4.36677102028695
  H   -1.92949478206198     -0.09551141946228      6.42086201052043
  H   0.53926761301029     -0.46430587496749      6.19194467975999
  H   1.50823713998642     -0.57810122631361      3.90941643878192
  S   0.06716181446787     -2.56789683274598     -0.14504792541651
  C   -1.07626410999909     -2.24669430588574     -1.33183750345171
  N   -1.88357868999919     -2.04314341791745     -2.13956990426343
  C   -1.00151080230036      5.16066500021390     -3.30031811547815
  C   -0.13827230910608      4.52789922668711     -4.18592488754969
  C   0.52189679218881      3.37082850981035     -3.80214683450686
  C   0.30794148985292      2.82941352576490     -2.54040403199235
  C   -0.55317326362455      3.46581785066692     -1.65398065907946
  C   -1.20160858010600      4.63300233659026     -2.03199092364267
  C   1.02653289981412      1.56240995452905     -2.13851709727607
  O   2.02868874514742      1.21453184092527     -2.75795202456839
  O   0.49909592677200      0.93758373675661     -1.14834825474438
  H   -1.51282230624716      6.06789067429471     -3.59698628129249
  H   0.02146857199007      4.94007805245616     -5.17417017947233
  H   1.21079587911276      2.86686140211382     -4.46617063051808
  H   -0.68535747206291      3.04976391247712     -0.66406362451818
  H   -1.86084191587080      5.13318581331102     -1.33413894066560
  N   3.00368131735362     -0.23282048475894     -0.43631204014767
  H   3.29569663703357     -1.20156741772798     -0.46985608049293
  H   3.70621291008710      0.27940178200269      0.08364713480729
  H   2.92640541487147      0.15031455372513     -1.38000112920825
  Br  1.60951921044775      2.25682019415142      1.87899245337138
  C   3.05138742625746     -2.19570626890706      2.46062533825636
  N   2.26252128266019     -1.51535769471297      1.93329862215985
