4
Coordinates from ORCA-job orca E -803.746021850902
  Cm  -0.12735741344716      0.98967769887542     -0.01147197151248
  Be  0.77483437889885     -1.98461932315748     -1.38300376875259
  O   -0.78557380374876      2.54901630002722      0.62912228171839
  O   0.73458683829707     -0.73218467574517     -0.67124654145332
