5
Coordinates from ORCA-job orca E -10978.612414045278
  Bk  0.14606656331288     -0.92970898569957      0.21113988028755
  Br  2.09015055387523      0.75142118232645      0.09915749083505
  Br  1.02582906295189     -3.25496291681247      0.87074078906987
  Br  -1.01205880343984     -1.06707120669151     -2.08155069227662
  Br  -1.55549737670016     -0.14671807312290      1.97257253208415
