4
Coordinates from ORCA-job orca E -518.592907078368
  Pr  -0.03921266139500     -0.01397818426396      0.03340101818769
  H   -0.68791892941358     -1.04563206994016     -1.60154522972396
  H   -0.69817294754129      1.91176667663213      0.07721076879548
  H   2.02179453834987     -0.03026642242800      0.05433344274080
