5
Coordinates from ORCA-job orca E -1127.526992239597
  No  -0.43083547171288     -0.78375584928298      0.11469485353945
  Be  2.39573913834519     -0.45095980933302      0.37935362587696
  Be  1.88603134368788     -2.31375626335847      0.78545619228752
  O   -1.33776460827759     -0.91121264696571     -1.75225073443668
  O   -1.81868040204259     -0.18735543105982      1.54480606273274
