4
Coordinates from ORCA-job orca E -3111.660599211074
  Am  0.88374996114535      0.05239402172571      1.55199655536346
  Ge  -1.68223277677422      0.28314199890236     -2.68717026063548
  P   -0.87190198950972      0.03928190885112     -0.53780354912783
  F   2.26687480513858      0.44707207052080      0.23637725439986
