18
Coordinates from ORCA-job orca E -1439.839890405103
  Ce  -0.55804924000020      1.51302632983046      0.50735306882417
  C   2.74020248783867      1.34494090392955     -0.31489582520717
  O   1.39938007256758      1.56135321988270      0.07368747853764
  H   2.85711249154937      0.32917332459491     -0.69189341890874
  H   3.39675028459488      1.48732864757539      0.54338861283961
  H   3.01373971725068      2.05355231018340     -1.09580099413689
  C   -0.57026073611320     -0.52234826610420      4.70507130386661
  C   -0.23430307685056      0.52559968086876      3.76283508520447
  N   0.01139649810136      1.34761753939777      3.00032675180836
  H   0.33995868792356     -0.96515353334428      5.10265128599739
  H   -1.14261550397214     -1.26778752457916      4.15203517936833
  H   -1.16603379705794     -0.10728845116178      5.51479415129091
  O   -2.39901724231557      0.63619734755281      1.25348212644758
  S   -2.14299926058367     -0.88593303899814      0.80196644307505
  O   -0.81231479081691     -0.53351796372029     -0.05110335124615
  O   -1.69465955619584     -1.60086005494150      1.98871424372686
  C   -1.78244899832900      4.15091135655278     -1.40040127210168
  N   -1.34113803759101      3.23658817248054     -0.81021086938710
