7
Coordinates from ORCA-job orca E -520.053857267394
  Pr  0.00002476578991     -0.00002592244079     -0.00003105284423
  H   0.00224303439520      0.00217464757514      1.92363638523561
  H   -0.00217825597311     -0.00223881769563     -1.92368584105345
  H   -0.19538301198480     -2.07486274540574     -0.00243760910690
  H   0.19526452239828      2.07481941418258      0.00247109659563
  H   -2.07416170441357     -0.19512593579241     -0.00242748668387
  H   2.07420064978810      0.19524935957686      0.00246450785722
