4
Coordinates from ORCA-job orca E -1029.761381061335
  Lr  -1.19585412697684     -0.55547295130382      0.91695081394695
  Li  0.30318646508828     -1.99192998844345     -1.94175014790575
  Li  0.36331639784879      2.61476899080021      0.86897820468654
  Li  1.12584126403977      0.75452394894706     -1.28077887072776
