4
Coordinates from ORCA-job orca E -1268.680080373844
  Ac  -0.04194852098234     -0.07277211446903      0.12429114746109
  I   -1.17109717948126     -1.66723800050925     -2.19387468683643
  I   -1.17260213874427      2.73385324070255      0.30711918602468
  I   2.98213783920786     -0.17195312572427      0.32586435335065
