5
Coordinates from ORCA-job orca E -3448.354679289362
  U   0.25996082509181     -0.97160527653157      0.10653194519188
  Ge  2.12909155839672      1.09617596775827      0.31546020733917
  S   0.70914894210363     -3.27545151587830      0.98161547447588
  S   -1.25465718160207     -1.14806453819982     -1.88086071709430
  F   -1.14905414399008     -0.34809463714858      1.54931309008736
