4
Coordinates from ORCA-job orca E -1603.453380864605
  Eu  0.09134251026899      0.18086715354800     -0.38925325292837
  I   -1.18938670357341     -1.80446917244925     -2.03779767410670
  I   -1.11483473208050      2.63347790385929      0.51658475434083
  I   2.80936892538492     -0.18798588495804      0.47386617269425
