6
Coordinates from ORCA-job orca E -1896.049444176590
  Th  -0.24031160315633      0.01638771288862      0.19688073489786
  I   0.49486308962433      0.34045850245912      3.00587536064211
  I   0.69801817644584      0.27445425132350     -2.75812756850806
  I   -1.62395182987021     -2.53434004859838      0.07788418700625
  I   2.78950650947223     -0.31404675365120     -0.34858187718326
  I   -2.11811434251586      2.21708633557832     -0.17392083685491
