4
Coordinates from ORCA-job orca E -2279.647857865769
  Tm  -0.42672071662938     -0.34543734711909      0.63235344186546
  S   -0.43005840570448     -0.71411901423536     -1.75744852396366
  S   -0.42643507063690      1.88466535046594     -0.30271985299717
  S   1.87970419297077     -0.00321898911151     -0.00878506490463
