4
Coordinates from ORCA-job orca E -1237.107163236002
  Lu  0.14850493987663      0.20460752839215     -0.35893186524070
  H   -0.76275663285540     -1.09729676224089     -1.46734621781135
  H   -0.76709276459342      1.82063298336683      0.19171558018998
  H   1.97783445757220     -0.10605374951809      0.19796250286207
