19
Coordinates from ORCA-job orca E -1058.139842518131
  Ce  -0.24127531348911      1.38580507707251      0.60040529782210
  N   1.76697205514481      0.08388857487867      0.30338188318267
  C   2.00380063963190     -0.72735616232787      1.56190914511050
  C   1.95297120962657      0.19633620667103      2.75750869906567
  N   0.58612764018636      0.85687982936759      2.81554601374608
  H   1.71267135377934     -0.55575775920303     -0.49890734004265
  H   2.60312745447660      0.65035557235153      0.11606391862631
  H   2.97049434736167     -1.22857227855238      1.49428264503940
  H   1.24032170285920     -1.50771105163510      1.60931906237181
  H   2.70437245884385      0.98470920110711      2.69438492372472
  H   2.13094907483976     -0.35221252022907      3.68264541647398
  H   0.63126344193449      1.64596789486284      3.47147515010737
  H   -0.06747448492108      0.20752768941018      3.27104082514110
  C   -0.28699226816532      3.96494251761628     -0.43054978039709
  O   -0.33583630215301      4.99069658325836     -0.84986888920037
  N   -2.36202893031594     -0.15282564033133     -0.01746062730465
  O   -2.26846732244395      0.74681120043890      0.96850489143873
  O   -1.17822423469671     -0.16241232521288     -0.61964723045298
  O   -3.27627252249951     -0.77877260954342     -0.28233400445284
