5
Coordinates from ORCA-job orca E -3447.549391954922
  U   1.17780116204356     -0.20341290437201     -0.93742607449258
  C   0.03314997514407      0.86698569472277      0.70460830254033
  Ge  -0.26250766846630     -4.71645928573766     -0.07337053321659
  S   0.28280595197409     -2.50569316047374     -0.28283453140145
  Cl  -0.74236454931097      1.67234818416792      1.81444688738755
