6
Coordinates from ORCA-job orca E -2495.839253562694
  Lr  -0.12159827640596     -0.20927402180101     -0.00378382580336
  I   0.71660685287011      0.47558169003312      2.74419534372217
  I   0.05371477583177      0.95244508968640     -2.71249381459062
  I   -1.43947254962874     -2.64988878723063     -0.07626481652027
  I   2.76943005381073     -0.62442440494528      0.43029301685696
  I   -1.97867085647792      2.05556043425739     -0.38193590366488
