26
Coordinates from ORCA-job orca E -2268.966540513021
  Ce  0.76203240410953      0.35676710485753      1.03072034947811
  C   -3.84804143672280      2.02452963918006     -0.96805037200789
  C   -2.85206175418130      1.57846279987466     -1.82307209942601
  C   -1.65375008935094      1.15246545761859     -1.28347284511169
  N   -1.42545469585569      1.15981331903464      0.03483735350693
  C   -2.38572778524534      1.59455986504248      0.85837115866818
  C   -3.61234265444031      2.03204783683037      0.39694700812187
  H   -4.79643594396613      2.36362689899151     -1.36173546700774
  H   -2.99456016496985      1.56077380539856     -2.89333770814188
  H   -0.84071939975359      0.79951759743676     -1.90426017344314
  H   -2.16230097640980      1.59142299204175      1.91803812935759
  H   -4.35840070432035      2.36969396043475      1.10046654050988
  I   1.29179295362851      3.09466987858030      1.90981108844475
  C   0.39977902680212     -4.00437046118084     -1.09851040442543
  C   0.00955360462136     -2.79984701234769     -0.39330215760548
  N   -0.27646036078743     -1.83591133503496      0.15629296516797
  H   1.33663033875874     -3.78310912768900     -1.60798390443292
  H   -0.36830250875894     -4.27478937574253     -1.81950747551362
  H   0.53912407207015     -4.81623545198338     -0.38845419222914
  S   -2.70909084746952     -0.49902444120708      4.23864943808658
  C   -1.30602654388505     -0.44794311559574      3.49563866913989
  N   -0.26504836294540     -0.39338759837731      2.92305902153554
  O   2.50863730572892     -1.74173206396084     -1.53757557781167
  S   2.73860361209232     -0.43504699912300     -0.94775091351029
  O   2.60338827556323     -0.61736885972802      0.66965144665293
  O   1.37631891009176      0.40107260577441     -1.06528599823547
