4
Coordinates from ORCA-job orca E -2270.800965533184
  Md  0.12577339691285      0.19738153489405     -0.27085641891585
  Cl  -0.94673303375631     -1.40498410716365     -1.75061684470409
  Cl  -1.03771667411003      2.25727431157426      0.30256830009876
  Cl  2.45516631095350     -0.22778173930466      0.28230496352118
