5
Coordinates from ORCA-job orca E -10954.138547106015
  Sm  0.52435008232546     -1.03231832108329      0.30091734859273
  Br  2.42138501334494      0.81625378514670      0.07987077343192
  Br  1.35306673969079     -3.46240200487874      1.00141802442195
  Br  -1.58428142084160     -0.73366637215355     -1.56439421650166
  Br  -2.02003041451958     -0.23490708703112      1.25424807005506
