4
Coordinates from ORCA-job orca E -510.978020648571
  Pa  0.39236568945021      0.90134645664371      1.03237638722635
  Sr  -0.49493780427225     -0.49228481545809     -2.11160583099087
  B   -1.31196297663889      1.04928668736389     -0.21152778464701
  Be  2.01102509146093     -0.63645832854951     -0.14584277158847
