7
Coordinates from ORCA-job orca E -1330.823488486743
  Cf  0.00000294884153     -0.00000076411446      0.00000053874400
  F   0.00000393794739     -0.00000720634114      1.97379312939476
  F   -0.00000382900328     -0.00000469575654     -1.97378940102311
  F   0.00030615621550     -2.01755966617018     -0.00000831771627
  F   -0.00030161253145      2.01757555295531      0.00000016014906
  F   -1.97383520262371      0.00002576289883     -0.00000238601327
  F   1.97383760115401     -0.00003898347181     -0.00000372353517
