4
Coordinates from ORCA-job orca E -5179.131444162573
  Pa  -0.17951642557798      0.23693565713303     -0.25977337331351
  Ga  -0.78922067378534     -1.94428937219272     -2.01151767178658
  Sb  -0.91115845566466      2.71806041319600      0.65448921459939
  Br  2.47638555502798     -0.18881669813630      0.18020183050070
