6
Coordinates from ORCA-job orca E -48.227317724920
  La  -0.48396181907140     -0.07345578703181      0.61145014511723
  Li  1.77118086497989     -0.23441806384712      2.94437366014855
  Li  -1.02664684233840      0.20249832949403     -2.34048023966646
  H   -0.93432025313065     -1.22209464586828     -1.34660604089966
  H   1.69144209587543     -0.07929062340888      1.21597649215121
  H   -1.01768404631487      1.40676079066205     -1.08470401685091
