4
Coordinates from ORCA-job orca E -1718.492506827283
  Pa  -0.34826584021224     -0.92266364518232     -0.45976443404129
  H   -1.23598051042113     -1.78701192507275     -2.11511101406978
  K   -0.49273740788837      3.10242697862083      0.63890632982365
  Ca  2.67347375852174      0.42913859163424      0.49936911828742
