25
Coordinates from ORCA-job orca E -1514.909259061326
  Gd  1.08808053900726      0.05200708646690     -0.05354110777647
  C   3.41318806326226      1.25023230708309     -1.06038381565250
  O   4.29616205184969      1.73025735035527     -1.53851050317098
  F   0.24125475459046      0.22015045888857     -1.81083776610866
  C   -1.72211779309861      1.93675390465832      0.20091907377600
  O   -0.59261164710223      1.30626236081338      0.92367704703044
  H   -1.71746599735685      2.99925514027623      0.42005476486687
  H   -2.64401828649532      1.46499991198018      0.52377782476585
  H   -1.55218974380302      1.76064229976011     -0.85514093795604
  H   -0.73178131993578      1.43601042774971      1.87019614254378
  C   0.16383042927211     -6.95320158980857     -0.65623711275773
  C   -0.69916001568757     -6.10127398959337      0.02579903390199
  C   -0.39821482269356     -4.75989247735005      0.12536379597420
  C   0.77640639752184     -4.26916508418149     -0.47007676650444
  C   1.64641139839208     -5.13863237577167     -1.15339765944358
  C   1.33544697522480     -6.47582551748440     -1.24344381045361
  C   1.05406026720362     -2.87429022738756     -0.35141685077466
  O   0.39839923077037     -2.05783953010622      0.34206166343469
  O   2.08227752595066     -2.28078782351733     -0.98564297360777
  H   -0.07499871866238     -8.00536957255874     -0.73135776640518
  H   -1.60188420134199     -6.48886519227033      0.47474237050558
  H   -1.05911282936345     -4.08347716563776      0.64783419407747
  H   2.57542514217241     -4.79891270359724     -1.59736486746353
  H   1.99784905574037     -7.15331003177233     -1.76189695466009
  H   2.55106354458279     -2.86002796699446     -1.60387701814157
