4
Coordinates from ORCA-job orca E -8128.045305482543
  Th  0.15242513823163      0.20820990543839     -0.36052177337336
  Br  -1.11885577197541     -1.60294695214390     -1.89533908865949
  Br  -1.13098140406626      2.44957383566375      0.40444419904173
  Br  2.69390203781003     -0.23294678895824      0.41481666299112
