51
Coordinates from ORCA-job orca E -2362.529262931877
  Ce  -0.16431011650620     -0.51658102837587      0.26018728148695
  C   -2.23165366144666      3.63275822650705      0.59395878113838
  C   -1.03311114054128      2.73183869265424      0.51327445150830
  C   0.24391386449659      3.26518138338401      0.53221737132868
  C   1.40969396268585      2.47942549055295      0.46118450152682
  O   1.41264471251148      1.21756410684782      0.47997913750400
  C   2.74132461267242      3.15405859453113      0.31728297631848
  O   -1.29123280823613      1.48100791222838      0.41272687540068
  H   -1.95714224209625      4.68207540042739      0.65499885205697
  H   -2.81836817462531      3.36258377261165      1.47276280703572
  H   -2.85998927865711      3.47073537849071     -0.28251735855822
  H   0.35392793937073      4.33742028654453      0.57114114895614
  H   2.71043669187922      4.19621479887566      0.62408117214715
  H   3.01969843521136      3.10965839632600     -0.73938181388563
  H   3.49396065153965      2.61253859464716      0.88646934391668
  C   2.28700981104154     -2.50295532565828      1.37791844190420
  C   1.40226696822633     -2.05464677276413      2.53794740688244
  O   1.45220648978631     -2.57602945157846      3.62095213069221
  O   0.56216529965225     -1.08310969696181      2.21192471136274
  N   2.14429002116228     -1.59414324004410      0.23928588987846
  H   1.93494375080562     -3.49201425215982      1.08768994854654
  H   3.31215655826410     -2.60262231858887      1.73366661052137
  H   2.32351388775090     -2.03025610747245     -0.65971237194707
  H   2.77872035812691     -0.80607461991973      0.30853222612208
  C   2.15663969328493      4.07157676472786     -3.77344504421888
  C   0.93336337223573      3.69243058012653     -3.23928011559361
  C   0.74018319191781      2.38881164896584     -2.80579098429620
  C   1.77130628426967      1.46251261674461     -2.90398512054621
  C   2.99415838606718      1.84296819073400     -3.44847347925835
  C   3.18688371544011      3.14482542973988     -3.88081366852901
  C   1.61800275747941      0.06028399776062     -2.38990665454663
  O   2.51575731068664     -0.75201392899769     -2.49189021435460
  O   0.47044753735452     -0.19643829851015     -1.79911065361104
  H   2.30758143542420      5.08867317394895     -4.11011267173296
  H   0.13013683918256      4.41278962239947     -3.15864749280092
  H   -0.20672722720881      2.08343639156660     -2.38264515227107
  H   3.78017919923168      1.10405429928266     -3.51777598127911
  H   4.13876550978574      3.43953663745052     -4.30152072688629
  C   -2.42957277951448     -0.67778037667903     -1.61885461330159
  O   -3.14033840389987     -0.87834302926903     -2.46264313077731
  Cl  -0.77501525021642     -3.00602795031685     -0.21446535106674
  C   -3.48630177642590     -2.10856601565541      3.46013986027550
  C   -2.36112844532249     -1.83923450665459      2.69351008373494
  N   -2.38030380529969     -0.89190702721675      1.75805527886970
  C   -3.52096056247435     -0.22251642167728      1.59740570915125
  C   -4.63769490292198     -0.50875152902793      2.36454432700532
  N   -4.62837082224395     -1.45154979257271      3.30071209805939
  H   -3.45551752512188     -2.87696937208424      4.22127124835437
  H   -1.43649194728603     -2.37891948719698      2.83862164999269
  H   -3.52835999955394      0.56053190147086      0.85154764435972
  H   -5.56008837794511      0.03905825983498      2.21958263342356
