33
Coordinates from ORCA-job orca E -1907.176177122185
  Tm  0.20690078467238     -1.38671101815199      0.47095167083172
  C   0.15273379265284     -2.52916264304942     -1.64222855528858
  N   -0.06832209789962     -3.04734500081110     -2.65341930694573
  N   0.70725179057093      3.06599185687465      0.51293872647868
  N   0.52976630726581      1.94958520991602      0.45785230757008
  N   0.34605963229647      0.76575384973307      0.39110413074983
  F   0.20721602583191     -2.41684628921034      2.18858760532184
  C   3.21906222960053     -1.16503443998167      1.64086018901792
  C   4.50905184737506     -0.50341052616275      1.18393483907830
  C   4.10239269254756      0.13027871115059     -0.14660769869172
  C   3.20029135738538     -0.93545879450780     -0.73384483937365
  O   2.50209064039651     -1.49185089389764      0.41468275322778
  H   2.59818593462099     -0.48008260167320      2.22123918703128
  H   3.35333629965657     -2.08695683783719      2.19977806287837
  H   5.28689630223411     -1.25113846022348      1.02692713272577
  H   4.86953261956432      0.22022660257616      1.91125545776345
  H   4.94872518706570      0.35272834019619     -0.79249317496027
  H   3.53843265030086      1.04874670076995      0.02071917472423
  H   3.75803544210055     -1.74302576801373     -1.20800454558275
  H   2.45593481856949     -0.55861456629367     -1.43272275747043
  C   -2.77311674706249     -1.19845078909301     -0.86631960306510
  C   -3.35642932161053     -2.49158945997144     -1.44843072035873
  C   -3.09015770481099     -3.55863235247148     -0.36871644177305
  C   -2.77513536598178     -2.74260819048268      0.87119878651455
  O   -2.07670413263428     -1.58695531356704      0.34724781552032
  H   -3.54105402203308     -0.47732779056797     -0.58663702650289
  H   -2.04829457129966     -0.71758345401582     -1.51991946397963
  H   -2.86074984525855     -2.75550463775833     -2.37870591962870
  H   -4.42108159886824     -2.37197413768017     -1.64002179338663
  H   -2.22619061413830     -4.16030238750703     -0.64531612325948
  H   -3.93901450107737     -4.22091482054513     -0.21288105257014
  H   -2.11590826496227     -3.21999534925489      1.59167713769052
  H   -3.67593756707090     -2.38803474848723      1.37691404571295
