21
Coordinates from ORCA-job orca E -2460.306056534565
  Eu  -0.02521594411081      0.04987570915816      0.65904491165812
  N   -0.29708062104152      0.56627843851261      3.18599115964638
  O   -0.41234076414235      0.94313709741894      4.33977056526318
  O   -0.24482965739562     -0.68323390532275      2.97775654209533
  N   -0.28825019604529      0.04986883447161     -1.85518519874384
  H   -1.30613401790156     -0.10431315811430     -1.99404409393740
  H   0.25450717499013     -0.69583394772185     -2.26979228372145
  H   -0.00996385093797      0.93567623424506     -2.25703916837283
  N   2.98185297275668      0.20294821575013      0.51890377098240
  O   4.20581799112528      0.20672486117188      0.45754468938776
  O   2.27283681600436      0.24473190628838     -0.52094569256601
  O   2.37790871373650      0.15664863655534      1.61951601834746
  S   0.85903342886782      2.93208581780558     -0.14954683194050
  C   0.08623903299384      4.33670360414743      0.33204092536366
  N   -0.38599546065073      5.35885408445415      0.62739412974466
  O   -2.16496163539673     -0.01407336830187      0.40246445278209
  S   -3.45959936880877     -0.51740160429324     -0.41652126841530
  O   -4.54210201509651      0.43569626719185     -0.05587036475717
  O   -3.05365223901894     -0.29320294566796     -1.86020342558850
  C   0.91447260088521     -3.36880111245892     -0.14054535725205
  N   0.57215703918696     -2.29456966529029      0.15836652002399
