5
Coordinates from ORCA-job orca E -1023.205299674568
  Es  -0.28518327772015     -1.25638977332790      0.25776506289629
  Be  2.02055895148095      0.57023423199444      0.04166196272871
  O   0.88821697165597     -2.63292010074982      0.72382225516638
  O   -0.69819843136000     -0.97532238328046     -1.54221830258052
  O   -1.23090421405677     -0.35264197463626      1.59102902178914
