5
Coordinates from ORCA-job orca E -874.769312066576
  Ce  0.13586230711387     -0.92931936318177      0.21508642097716
  F   1.67394947434560      0.38229127166351      0.12694931339947
  F   0.84742127165038     -2.75454897195512      0.72161249240197
  F   -0.76386658782817     -1.04165055294526     -1.59385910746938
  F   -1.19887646528168     -0.30381238358137      1.60227088069077
