28
Coordinates from ORCA-job orca E -1726.179131739935
  Eu  -0.04399664236639     -0.39162303591615      0.95919728975894
  C   3.32652963852196      2.61803034526785     -0.13140239704807
  C   2.80001289527232      1.23788724998845     -0.41314115266522
  O   1.99404739468927      0.74050139684320      0.73317969122102
  H   3.91792476637169      2.95312290568710     -0.98264632867547
  H   3.98447508651345      2.61914741345699      0.73863206520183
  H   2.52123355603802      3.33370151202089      0.02470252481220
  H   3.59298048968996      0.51214101497621     -0.57640287878951
  H   2.11995964209641      1.22107015503710     -1.26356276119057
  H   2.48377828592742      0.93304475944013      1.54488235090457
  C   -1.02223492720896      2.19377172720543      1.09407534783243
  O   -1.39495031011275      3.22794874201696      1.27273689350897
  C   1.58728492721788     -5.02370488126200     -0.00309629601080
  C   1.12169206232587     -3.66396871358371      0.16078833636339
  N   0.75049603180182     -2.58463656651773      0.29349815845204
  H   2.67404751865492     -5.04365549681188      0.07112558047318
  H   1.27954345632398     -5.39631492033551     -0.97951339849322
  H   1.15653049072636     -5.64613739757151      0.78073310981681
  C   -4.25381001862112     -2.23133337031592      0.06622601273658
  C   -3.33580182299214     -1.07739192051277     -0.22959592523594
  O   -2.32599550282751     -0.92629174789247      0.84917981422725
  H   -4.98511992109186     -2.31922138750645     -0.73620878553990
  H   -4.80867543527163     -2.06607569076031      0.99089882980248
  H   -3.70842260493283     -3.17069536028175      0.13523307697691
  H   -3.86780070016273     -0.13140604628169     -0.30058966755092
  H   -2.75605673858649     -1.23464408003787     -1.13750051362157
  H   -2.77621610284094     -1.04876584351454      1.69659208528942
  Cl  -0.02955551515594     -0.40220076283788      3.38597893744308
