45
Coordinates from ORCA-job orca E -3501.685253174288
  Yb  -0.69814730559233     -0.84742100091596      0.30632940102292
  C   2.12444491903174     -0.27964052950003      1.92695806500551
  C   1.10788832000899     -0.89296202898348      2.91290319695412
  O   1.46867226251475     -1.01301368087819      4.07596348860805
  O   -0.04085869619038     -1.17703319047050      2.42256579429742
  N   1.81708068754721     -0.52642105404929      0.50483109314267
  H   3.12000240437242     -0.62344373859215      2.20970449451483
  H   2.09285939271282      0.79842877372809      2.09204047334990
  H   2.24612429379508     -1.39152144559570      0.18736806187837
  H   2.21586059689054      0.22078161585682     -0.05116703395353
  S   2.23539466368844     -3.50167529150670     -1.72248736637893
  C   0.72696043132194     -3.22603997021035     -1.15119295990597
  N   -0.35208622149553     -2.99680161645486     -0.75297290594957
  C   -1.75318061625781      5.43912615869749     -2.63215608812079
  C   -0.42682354378336      5.13176562275036     -2.90951473430546
  C   0.25160048983525      4.22567270018449     -2.11278396238303
  C   -0.39479965789935      3.61188233781792     -1.04320196391610
  C   -1.72059369276751      3.92533975785784     -0.76326257056896
  C   -2.39522576464996      4.84037614013136     -1.55856616316098
  C   0.39650145537040      2.62246689446844     -0.24379248070623
  O   1.59813910460428      2.54033998191170     -0.33140004667267
  O   -0.27292507846613      1.81620458680597      0.58104337210076
  H   -2.28644082746957      6.14509511093829     -3.25542536690011
  H   0.07515310261405      5.59602562345595     -3.74770837600155
  H   1.28454412603355      3.97113913804848     -2.30461204828303
  H   -2.24585392437732      3.45365076089919      0.05560986344201
  H   -3.42776529158903      5.07679148279082     -1.34032661572154
  H   -1.25990118771763      1.79920652326983      0.45052415162840
  Cl  -2.95950279443225      0.74136724512060      0.21411404574681
  C   -0.85527178054992     -3.01701922325509     -4.06069932772339
  O   -0.80606152716808     -1.58821475172484     -4.15376860072670
  P   -1.56734975005013     -0.69928046166030     -3.03924126080630
  O   -1.81509405227932      0.55078530920026     -4.05601748607594
  C   -2.42127911197124      1.71341040011363     -3.48353813987924
  O   -0.30223096489945     -0.11294304815259     -2.13967870745499
  C   0.95267238574400      0.18699503662644     -2.78384073336325
  H   -1.14975151269595     -3.40059851433776     -5.03626705506865
  H   -1.57065707377684     -3.34137626872925     -3.30483971910105
  H   0.13038521966313     -3.39206050856637     -3.79301831074940
  H   -1.65437392984022      2.45182839632410     -3.25117282797637
  H   -2.96804119400677      1.47800315714776     -2.56728814743566
  H   -3.10628378126748      2.12603090267743     -4.22213862156713
  H   1.53849082793765     -0.72591094779144     -2.87723111470529
  H   1.47446934019123      0.90654135397669     -2.15892730074229
  H   0.77215525731619      0.61712226057466     -3.76821746538736
