4
Coordinates from ORCA-job orca E -3452.403736181158
  U   0.47991563140076     -0.68344894658444      0.58530343342599
  Sb  -1.22336294298495     -0.49246125498943     -1.67732559427717
  Na  -1.88653176217670      2.32053865658804     -0.66522576832263
  Br  3.22646907376089     -0.32273845501417      0.32064792917381
