4
Coordinates from ORCA-job orca E -1446.882404477853
  Pu  -0.12041991938535     -0.18006427168883      0.32031042267984
  I   -0.99889448537509     -1.43017870047345     -2.08892180974904
  I   -1.01153328340371      2.52636130917229      0.16016266808952
  I   2.72733768816416     -0.09422833701001      0.17184871897968
