4
Coordinates from ORCA-job orca E -1099.458066533002
  La  0.01469202748761     -0.54459751115687      1.64393687317617
  K   -0.68984614984937     -1.33537704228277     -2.36843181729382
  Mg  -0.67915578829049      2.41677399168858     -0.39237608411418
  Te  1.95079991065225      0.28509056175106     -0.31972897176817
