70
Coordinates from ORCA-job orca E -2632.670313725161
  Eu  0.44997987268276      0.37017608642398      0.01329234372865
  N   -0.63720813868063      2.02096364294778     -1.54181005388789
  C   -0.05527122128508      3.21058542460825     -1.72701444476158
  C   -0.61399144301247      4.20495527070126     -2.50988335827219
  C   -1.82804401602106      3.95035580748600     -3.12378314041278
  C   -2.42812691741079      2.71211506784598     -2.94874300683109
  C   -1.80485761649462      1.76172289985122     -2.15395086829400
  C   -2.36067966364931      0.39027025486833     -1.95954288002344
  C   -3.56057680327098     -0.01325016100566     -2.52980777962224
  C   -3.99653562466193     -1.31685184752171     -2.35542881588771
  C   -3.22493560142272     -2.19504086302558     -1.61102617032393
  C   -2.05231390868727     -1.71819962090227     -1.06006108554909
  N   -1.62071710103538     -0.46016955520888     -1.22131091296687
  H   0.89536920364949      3.36240614050620     -1.22970144418776
  H   -0.10429583555715      5.14927553914248     -2.63230207296090
  H   -2.30238265884373      4.70014014849569     -3.74159072843496
  H   -3.36549743931151      2.50244077273885     -3.43912626450078
  H   -4.15665720279823      0.67272409184068     -3.11049033942101
  H   -4.92763995675992     -1.64119977241150     -2.79928107371186
  H   -3.52386493026266     -3.22094369944105     -1.45455295304145
  H   -1.43034877940444     -2.36475042068146     -0.45204940124592
  N   2.63588877227576      1.70708880098150      1.33981662713014
  O   2.20687318910011      2.01611203481423      0.19697893908848
  O   2.04467150354629      0.70328403591428      1.81415369726530
  C   -0.65147307140655     -1.77485822728200      4.11489091476201
  C   -0.05892885398984     -1.28351450647147      2.95792753598273
  N   -0.79552533986989     -0.82816169854290      1.94140455057472
  C   -2.12384711843200     -0.86364440314422      2.09996633207317
  C   -2.70137075789123     -1.35804708436455      3.25731080843287
  N   -1.96761267889547     -1.81472985642936      4.26679869741244
  H   -0.04323534296923     -2.13829082915227      4.93301437673604
  H   1.01724417910324     -1.23852869752576      2.86201988243460
  H   -2.73714356292860     -0.48720731440105      1.29128762864687
  H   -3.77742493189765     -1.38272686039007      3.37256330375548
  C   2.73110908625267     -2.24234412254663      0.76518598761846
  C   3.69684244146678     -2.75800689528698     -0.29453743005267
  C   2.79003503461687     -3.14819811204210     -1.48397769157147
  C   1.38459763092267     -2.79572174094453     -1.01121471739789
  O   1.57071164201049     -1.78286741767817      0.00973932532074
  H   3.10060384597784     -1.40658473402746      1.35099215437626
  H   2.39433814390947     -3.03901363012886      1.43132874483073
  H   4.27223528423597     -3.59949609237963      0.08231248446420
  H   4.40174545833444     -1.98101508172618     -0.58289332500728
  H   2.86244558527358     -4.20338765385238     -1.73448356355790
  H   3.05197685418987     -2.57975959470393     -2.37483369424090
  H   0.88368022814262     -3.64935862737195     -0.54907983546360
  H   0.74525468772465     -2.38029843486365     -1.78778359660946
  C   3.71719811279065      0.30763645833279     -3.49872832107998
  C   3.00193230027410      0.44128879711018     -2.31536352769923
  N   1.68917982309359      0.20004630240963     -2.26766618731818
  C   1.10528894026828     -0.16629422583393     -3.41329022661558
  C   1.83129159079671     -0.30291064787713     -4.58502369922648
  N   3.13822294280803     -0.06901786183363     -4.63050896807223
  H   4.77998093506251      0.51094230862462     -3.52492640508080
  H   3.48858091416679      0.76124088510276     -1.40407290901572
  H   0.03968365267203     -0.35766235349242     -3.39468988416542
  H   1.34743048488077     -0.60687911573395     -5.50426562088954
  C   -0.78355337510402      2.12602703415918      3.58204572182651
  P   -0.71768278272550      2.52408257520506      1.80462376074484
  C   0.17582705842576      4.11237377135980      1.80883451491833
  C   -2.42928092066307      3.03293264937998      1.42271467369477
  H   -1.13783696485053      2.98415920943306      4.15300892428763
  H   0.21358005597803      1.85819559840600      3.93111728475944
  H   -1.45515937865185      1.28806874742606      3.76602606819652
  H   -0.30794658518854      4.81236041908770      2.49020213205146
  H   0.18844351734724      4.54941450775134      0.81162615448142
  H   1.20595724128635      3.96312056171247      2.12931769033713
  H   -2.76951640420424      3.80710007727382      2.11057717167415
  H   -3.10685916321206      2.18193296066089      1.49886356467276
  H   -2.48035812181628      3.42459287762304      0.40595440112302
