40
Coordinates from ORCA-job orca E -3700.731294602575
  Er  0.10097570682591      0.41024335232204     -0.12930800589679
  C   2.57050404980908      1.08820381712709     -0.33944340190346
  O   3.55202604424292      1.11654132152310      0.35414205667647
  I   -2.35328062778986      1.23925589124835      1.64379690133762
  O   1.74829283138694      0.39575887995360     -3.60322669747814
  S   1.41717048800616      1.37141113525390     -2.54075619804249
  O   2.83168756567555      1.53840093294423     -1.71731991329707
  O   1.13068146905278      2.73854495328403     -3.02579908223453
  C   -3.92164328185283     -2.26101185161776      1.62698683334392
  O   -2.78930096683286     -3.14536643354766      1.64514177541546
  P   -1.31962787495464     -2.46345923969455      1.78664501092625
  O   -1.05169492638049     -1.93027799879820      0.23777706733476
  C   -1.27619890609478     -2.84327733389597     -0.85747522855478
  O   -0.57570880820542     -3.92765036677890      1.74569964178380
  C   0.83043199220315     -3.93056701415839      1.97123104786658
  H   -4.80061706032295     -2.88779473752129      1.77201178299616
  H   -3.99368164517723     -1.74051093907164      0.67272219178602
  H   -3.85364695044923     -1.52168737539876      2.42540566844527
  H   -2.27489548301498     -3.26568348265275     -0.78119158978001
  H   -0.52536172099655     -3.63117894522811     -0.83270918150908
  H   -1.18486493443564     -2.26944825332633     -1.77204761998219
  H   1.10052784766987     -4.93731240244413      2.28957590625446
  H   1.12170713108538     -3.20901793842388      2.73607145975375
  H   1.36937779762604     -3.67750229035462      1.05701345846691
  O   1.23781803674628     -1.36175532358590     -1.46775319958309
  H   2.08401604360441     -1.35790274103357     -1.00460160738018
  H   1.42654151880919     -0.98279686359631     -2.35663524161646
  S   -1.72137201331921      0.36497153401182     -2.32612406760633
  C   -3.12929724599765     -0.42262819539789     -1.87302184543857
  N   -4.10844984839115     -0.99738904994626     -1.62961855378963
  C   0.49349190338450      3.69084069506693      0.54754982127136
  O   0.00333807572541      2.79103189524004     -0.44341620508157
  H   0.23697433233397      4.71688668639250      0.27703782416085
  H   1.57436831044077      3.59039357093682      0.66234070489387
  H   0.00394504895795      3.42977827373006      1.48240611535508
  H   0.32422987916694      3.05067236483060     -1.33196194963769
  N   1.52573058473552     -0.10741971784050      2.27845613751221
  O   1.00723139564869      1.01387406983253      2.08563855300690
  O   1.32440009772150     -0.97193646836584      1.35596695844006
  O   2.15477414335666     -0.38993441101826      3.27329267178423
