4
Coordinates from ORCA-job orca E -3328.803149620692
  Gd  -0.13065120951439      0.40310809639723      1.42292139725205
  Ga  0.10237150868949      0.15251593687043     -1.87920767019355
  S   -1.61678681893516      0.86948712778450     -0.58546122552233
  Sb  2.24155651976006     -0.60322116105215     -0.39485250153617
