4
Coordinates from ORCA-job orca E -2064.421726773054
  Bk  -0.02165821225670     -0.04180815618070      0.06213706720332
  Cl  -0.91645278057415     -1.30809275639993     -1.85615653942160
  Cl  -0.90666496610985      2.25738826349786      0.17228085043416
  Cl  2.44126595894071     -0.08559735091723      0.18513862178412
