16
Coordinates from ORCA-job orca E -3990.468309543657
  Nd  0.12513979416988      1.19046463340299      0.73884531347112
  Br  -0.26160697117414      1.08254862974081      3.39339890621937
  S   4.56241758580180     -1.76840444280472      0.45793917677517
  C   3.17737216998538     -0.90366051240835      0.44330847338848
  N   2.19272011522905     -0.28466407008925      0.43440306736603
  F   0.07928379297251      2.83238911120406     -0.44428197917819
  C   -4.14888479127205     -0.88191048103432      0.45922047412235
  C   -2.87789729615955     -0.48936482340224      0.84664151378461
  N   -2.16280736993758      0.35223879826531      0.09017122531508
  C   -2.72875307410163      0.80718910825688     -1.03499630619246
  C   -4.00270845033657      0.40383746494716     -1.40079974315781
  N   -4.70940926038354     -0.44120517366718     -0.66050420269041
  H   -4.72384255918140     -1.56445357896759      1.07051418008365
  H   -2.43529906279084     -0.83520369167347      1.77162115668109
  H   -2.16368471902501      1.50779560990298     -1.63733049573730
  H   -4.45839327217052      0.77407856846836     -2.30929686850676
