26
Coordinates from ORCA-job orca E -2120.892984697667
  Dy  -0.29114873572346      0.44901048923067      0.15745647790355
  N   2.03916740292484     -0.07131913818162      0.45297517638225
  C   2.86471306681339     -0.18249478455834     -0.59335785044128
  C   4.23570563253975     -0.26736166569039     -0.45904099979760
  C   4.76564007851204     -0.22745250006432      0.81920433179267
  C   3.91533377215992     -0.11454935063672      1.90837971304682
  C   2.54816733727284     -0.03995749362927      1.69936367784803
  C   1.56294906600991      0.06565589249765      2.81358009757532
  C   1.93734430679875      0.14546096376935      4.14318978374518
  C   0.95522052412707      0.22003199172697      5.12049776179666
  C   -0.37746865481965      0.20214975465214      4.75065145857214
  C   -0.67928746780919      0.12765833780516      3.40376364759676
  N   0.26418852819336      0.06880216626001      2.45905582541476
  H   2.40783327557053     -0.20478105522155     -1.57652558566013
  H   4.86261545153806     -0.35831322245024     -1.33290118259879
  H   5.83420476103155     -0.28460811605536      0.97191141972312
  H   4.32518601583686     -0.08792206864492      2.90529605927794
  H   2.97714402533568      0.15526469609395      4.42869118350873
  H   1.23523415525002      0.28909694182655      6.16226143987965
  H   -1.17055875571118      0.24993130846697      5.48117780938424
  H   -1.70741511419838      0.10944424410713      3.06286510854650
  Cl  -0.38238527212652      2.86360105816651      0.01623082170299
  N   -2.29115656668035     -1.25009049500379     -0.57019747199101
  O   -3.13872120901536     -2.00781837705321     -0.87282890180738
  O   -2.21743808455279     -0.70156040952237      0.59875115163810
  O   -1.34176753927751     -0.89187916789093     -1.37165095303971
