18
Coordinates from ORCA-job orca E -4040.926049656111
  Nd  -0.09804072703776      0.54521391540102      1.54647828393249
  C   4.18037879184219     -0.49366346088202     -0.74041985845864
  C   2.94895458786998     -0.18299473800591     -0.06714360304545
  N   1.95660595099889      0.06713693231130      0.47190467831076
  H   4.91781561621196      0.28109090988819     -0.51726911259370
  H   3.99991419822234     -0.53222072281161     -1.81740180081281
  H   4.54595874971099     -1.46295725882400     -0.39285943542118
  F   1.61757007456729     -0.42817116947745      4.92158944844578
  P   0.15310778715354      0.00736020268265      4.95498314572497
  F   0.33854896213042      1.30214867632666      3.88794597784366
  F   -0.30657380069913     -0.84964811514934      3.56481860647731
  C   -4.28743874547967     -0.25326466142755     -0.99872505946979
  C   -3.07530946707651      0.00836556948379     -0.27141687957497
  N   -2.09943529484506      0.21954317389914      0.31275224529731
  H   -4.94236112224483     -0.88238147136949     -0.39087334506312
  H   -4.04298655602444     -0.76806296666412     -1.93099618949684
  H   -4.78656133853828      0.69342312123741     -1.21914565505498
  Br  -0.42316431249727      3.53962029763241      1.12756553456408
