5
Coordinates from ORCA-job orca E -2015.365502051036
  Tb  0.11347395772341     -1.27922531445634     -0.00913994846372
  I   1.71618944104396      1.16246899309298      0.63265628894092
  I   1.12383177338728     -3.76511696213662      0.85059942084786
  I   -1.17343284632873     -1.23903950865479     -2.51051797174902
  I   -1.08557232582593      0.47387279215476      2.10846221042396
