4
Coordinates from ORCA-job orca E -1461.008761357543
  Lu  0.14875294276719      0.20600188922527     -0.35573073101386
  O   -0.81297033623103     -1.17088042698607     -1.53016120301406
  O   -0.82420851816111      1.91510304366887      0.22173391788426
  O   2.08491591162495     -0.12833450590805      0.22755801614365
