21
Coordinates from ORCA-job orca E -1993.927169458175
  Tm  -0.07242555385712      0.28477119943695      0.95115057245408
  C   4.75390420963496     -0.02344886751427     -0.53546920998347
  C   4.04391629034628      1.16157951998183     -0.66864034825921
  C   2.72976208288697      1.20041353103308     -0.25622524996618
  N   2.10683931651784      0.12198453987771      0.27108525973149
  C   2.80940970783511     -1.02657407016812      0.39508553716467
  C   4.12420444703181     -1.13778704798613      0.00724439867561
  H   5.78718711663987     -0.07997626453030     -0.84954895815034
  H   4.50025380647569      2.04765392245837     -1.08456274746832
  H   2.14446797765297      2.10743331208471     -0.33824590351052
  H   2.29385161408812     -1.88084989778091      0.82250927415381
  H   4.64481890206554     -2.07616007554083      0.12813249292398
  N   -1.60252174392413     -0.73348667221289     -0.59262125591498
  H   -2.19446207066975      0.00308442724084     -0.98096311557265
  H   -2.25592165700428     -1.42979813987213     -0.23253979971014
  H   -1.17461645802651     -1.17883220606433     -1.40508139311143
  C   -0.49048346106289      0.32106989324210      3.54678818057446
  O   -0.69690397573550      0.45322103795369      4.63113035888797
  S   -1.17122632673804      4.90586116876425      0.45859685734514
  C   -0.81345957111432      3.41975982960363      0.62032805973698
  N   -0.52775248382640      2.23739604629883      0.74877757353956
