5
Coordinates from ORCA-job orca E -6410.155187312408
  Tm  -1.16191927590856     -2.17207621580720      0.52880708129033
  Na  1.58017968567700      0.14192143898645      0.48431977550581
  Br  1.61191467395889     -2.58698452813540      0.56804210100830
  Be  -0.39774071502939     -0.47379594592375     -2.05408991161051
  Br  -0.93794436869794      0.44389525087990      1.54498095380607
