4
Coordinates from ORCA-job orca E -3388.191971195128
  Th  -0.16539757704889     -0.24962914353594      0.57603155822954
  P   -0.47377812490458     -1.43598583687303     -1.98569675999944
  Sb  -1.18919087503977      2.91427864989104      0.22773632428770
  Se  2.42485657699323     -0.40677366948207     -0.25467112251780
