5
Coordinates from ORCA-job orca E -2505.591489242142
  No  -1.14765160794129     -1.81259729634011     -0.16128261881094
  K   1.48534463765510      1.02208707950583     -0.23164468244160
  S   0.87195258528871     -2.88575191739432      1.09446132409190
  F   0.08661461773871     -0.70745692770478     -1.40222323361932
  Cl  -0.60177023274122     -0.26332093806660      1.77274921077995
