16
Coordinates from ORCA-job orca E -2837.184305051689
  Nd  -0.44332939671105     -0.22884990411670      0.75597899769071
  O   1.78480306120391     -0.11932403661500     -0.51652650438817
  H   1.80215546571959     -1.06548312621469     -0.84948647061248
  H   2.37207451431814     -0.13290111015016      0.24787894078293
  S   -3.30080926992326      2.83201660566948     -2.51633893287247
  C   -2.40215112212313      1.89657731800992     -1.51502718600391
  N   -1.76097701166776      1.23045125796625     -0.80072863362746
  O   0.23052806330232      2.20261815397118      1.51398092684886
  S   1.25162828832650      1.84073272887445      2.52695454980634
  O   1.55043538888694      0.38983149663358      2.37869016027487
  O   2.42084780245519      2.70959604905145      2.58840310024363
  O   1.58044943424142     -2.72229017475443     -1.06682834303223
  S   0.35636254134558     -2.95815102461967     -0.22347682014757
  O   -0.71883089824337     -1.95886921594973     -0.76376955011889
  O   0.65080289708903     -2.29198294334527      1.14879030634347
  Cl  -2.27188975822008     -0.39487207441066      2.73120545881235
