4
Coordinates from ORCA-job orca E -1052.970735914962
  Np  0.36754885556700      0.52149917582694      1.45030425788091
  Sr  -0.23116362594710     -0.40967342972483     -2.29527497088196
  Sb  -1.65572829806590      1.55259900060230     -0.28524326593370
  Te  2.11583306844601     -0.84253474670441     -0.30638602106525
