23
Coordinates from ORCA-job orca E -1466.151168472551
  Tb  0.24500108890769     -0.21844169600733     -0.48128841419577
  O   1.75557417742212     -0.66300135024986     -2.33029589145277
  H   1.34291921048588     -0.94625329016570     -3.15351668518070
  H   2.31840158335523      0.10556723440891     -2.51148754341590
  C   -4.14315423215399      1.42251493093203      0.26958664938169
  C   -3.03083134263250      0.68782669124913     -0.11002696915125
  N   -1.79808144233651      1.16497422151928      0.07814158359017
  C   -1.68651038343730      2.37537037643516      0.63166100070377
  C   -2.81202767161027      3.09532986317665      0.99906208304877
  N   -4.04135611329222      2.62426623691888      0.82493036030281
  H   -5.13819567595600      1.02676238427936      0.11546671216224
  H   -3.12418748078323     -0.27987253734282     -0.58432848007723
  H   -0.68685392543556      2.76480851349287      0.76786004167719
  H   -2.71332750380674      4.07669460084387      1.44388595028555
  C   2.23701834814950      1.91923292921049     -1.13192242749333
  N   1.41364905183843      1.81518639546671     -0.30498961175118
  C   -1.24483953939328     -1.10420519519898     -2.24085790832718
  N   -1.90341288995552     -1.46784461407279     -3.12100522351303
  C   0.68194305626387     -2.30271074439438      2.16258103823856
  O   0.42538043740038     -1.44676555748890      1.08436547256518
  H   -0.19601465298066     -2.38270937490580      2.80734661466965
  H   1.51393370176958     -1.92862499711992      2.76380079733373
  H   0.93747219818174     -3.30390502098705      1.80923085059900
