60
Coordinates from ORCA-job orca E -2655.259922791327
  Tm  -0.06883645996071     -0.26827363640417     -0.07379169008061
  C   4.19417941470015     -1.51720312163782     -1.21953618033712
  C   2.69151261282131     -1.58050296296489     -1.21041817661912
  C   2.03613743944330     -2.38348852990782     -2.16564911205088
  C   0.67495126941759     -2.71541500270220     -2.09214009711946
  O   -0.15402393195406     -2.16101345773896     -1.30671668357455
  C   0.13314036595240     -3.80411392845964     -2.97418782445132
  O   2.10059025590744     -0.91491835729652     -0.31588664216395
  H   4.62490155371367     -1.95549405301544     -2.11544117667595
  H   4.57057082507743     -2.06205667109797     -0.35193273872537
  H   4.51423119011888     -0.48075372290425     -1.12091404478194
  H   2.64631350043644     -2.91750130360336     -2.87750845174948
  H   0.86698845853351     -4.16924667390255     -3.68668054018221
  H   -0.74523372772919     -3.43807458282414     -3.50494511333924
  H   -0.19129906436021     -4.63207179748155     -2.34252978672059
  C   -0.43887851593908      6.28419706546153      2.26286020412368
  C   -1.58163187955807      5.49461765597344      2.25669965011390
  C   -1.52610355710117      4.20220747635196      1.76095885333155
  C   -0.32349718211391      3.69990158471006      1.27291193957956
  C   0.82103564566653      4.49300050483021      1.27807218435657
  C   0.76163269871431      5.78548137157827      1.77328299477719
  C   -0.25795144815115      2.30863520213740      0.75452215950879
  O   -1.29984442120145      1.59273393177314      0.70385792243662
  O   0.85703946894647      1.83091888229467      0.37050343306566
  H   -0.48445011334783      7.29364395598639      2.64858399246806
  H   -2.51370577446613      5.88895008373916      2.63713649413024
  H   -2.40374404948925      3.57143553432777      1.74585441495037
  H   1.74459917637254      4.08721976548172      0.88840260016895
  H   1.64706386305892      6.40609636699499      1.77571260771317
  C   0.36971371799397      2.81629724797182     -2.78838440348920
  C   1.35183724125469      1.68117942113742     -2.63598962338154
  O   0.61510318734688      0.46820691380445     -2.33973395253069
  H   0.90343472521259      3.74852212394392     -2.96937429848408
  H   -0.22179359608786      2.94312719195517     -1.88190642612070
  H   -0.30231908012294      2.63917018537854     -3.62788776981406
  H   2.05062016225911      1.87111314579100     -1.82183426365871
  H   1.90965699261273      1.52457825497896     -3.55952742338651
  H   1.11531591434375     -0.28895272753916     -2.67691646361195
  N   -1.85959430114735     -1.58062484067882      1.05624620879944
  H   -2.15651536936017     -2.40777650617276      0.55140018480380
  H   -2.68380629450590     -1.03295944811109      1.27715982584226
  H   -1.46122933918028     -1.88192264689288      1.93875318057430
  C   1.96624318071459     -1.32055016415509      4.27505844306957
  P   1.56095066233942     -0.04597366559378      3.08178827720232
  O   0.54908277735933     -0.57597870863837      2.08278077894096
  C   3.09523365410650      0.48997076100115      2.33597800244937
  C   0.90653783447672      1.34697653925896      3.99899386680796
  H   2.69427880815967     -0.95576767478118      4.99859817682724
  H   2.38161624219918     -2.18049819426010      3.75123680614711
  H   1.06367482404312     -1.62901272503827      4.80077012845510
  H   3.77103086353440      0.86464213168156      3.10472219774173
  H   2.87318950936042      1.27422436673839      1.61358188042942
  H   3.55086042150552     -0.34699748171068      1.81099598904843
  H   -0.04335512451336      1.06768267861281      4.45308361718503
  H   0.74368104930599      2.18620934636918      3.32322911371731
  H   1.60315277584061      1.65226974779033      4.77949441209060
  N   -2.08500529767109     -0.02139660170177     -1.54925068701335
  H   -2.58031573526378     -0.87960794132076     -1.76034596290253
  H   -1.75092966442977      0.34817326288550     -2.43294988468395
  H   -2.74643835519576      0.64746442759577     -1.17025112320727
