6
Coordinates from ORCA-job orca E -444.043094124303
  Pa  -0.18021309939402     -0.12702221238215      0.09196001539098
  H   0.42150053334545      0.40466359280424      1.91157196276860
  H   0.54122891989430      0.41687440269167     -1.63246454906667
  H   -1.13894603653613     -1.86651378968734      0.04688109587297
  H   1.72921083829803     -0.27261665840529     -0.25827504697428
  H   -1.37277115560763      1.44461466497887     -0.15966347799159
