5
Coordinates from ORCA-job orca E -1342.077478262481
  Nd  -0.86653341943807     -1.02345210433762     -0.59893611636167
  S   0.58268720727039      0.89487701591449      0.48894005717279
  Te  0.39567180695586     -2.65178465682019      1.97609595290820
  F   -0.38328805953079     -1.41982510534055     -2.48789208615959
  Be  0.96595246474259     -0.44685514941611      1.69385219244028
