6
Coordinates from ORCA-job orca E -1301.620996433913
  Np  -0.62111556363299      0.68131623721419     -0.72238093071952
  Be  0.49255390804068     -0.49662162955250      1.51125632757162
  O   1.00334880615150      0.07284082362062     -1.52385418366553
  S   -1.05633655875975     -1.40269572989491      0.84541807613061
  Mg  2.37251736105927     -0.57639127531509     -0.14476782025807
  F   -2.19095795285871      1.72155157392768      0.03433853094089
