23
Coordinates from ORCA-job orca E -2103.109486601708
  Ho  -0.25491166074590      0.54346573506795     -0.12781182997666
  C   3.90424844147002     -0.65779347644997      1.35378319523043
  C   2.71542916395799     -0.80805562865326      0.43350038659057
  C   2.39392543350848     -2.08705965755364     -0.06976958032935
  C   1.24631022278107     -2.31907077248308     -0.83310266301325
  O   0.35471049409111     -1.47270498508911     -1.09814129897515
  C   1.01666786442000     -3.70339361012266     -1.40703375708344
  O   2.06687939102404      0.23008448723956      0.19750962573108
  H   4.54495742620638     -1.53941814849192      1.36901070717263
  H   3.49801624549647     -0.48251642151351      2.35272018671993
  H   4.47503188723827      0.22383793310938      1.06448117940291
  H   3.05348857726689     -2.91510930806054      0.14753339192572
  H   1.80824511895836     -4.40455099875697     -1.14485453484785
  H   0.94322403338094     -3.62159321655623     -2.49226456653684
  H   0.05766230991692     -4.07264895577625     -1.04322872566664
  C   0.80048767732300      2.59282728229541     -1.18447197868752
  N   1.32324227484149      3.50429655250351     -1.67852408212192
  O   -2.40602984733267     -0.61983015286861      0.20798371388424
  S   -2.89333180617225      0.62520498241970     -0.54080834395121
  O   -2.24910184646530      1.75635019711681      0.29232323058220
  O   -1.96851298784557      0.61149227599149     -1.77908637467497
  C   0.17878986377777      0.12698390681904      2.35106498564508
  N   0.55277172290238     -0.12429802018703      3.42208713297998
