45
Coordinates from ORCA-job orca E -2250.570463769335
  Ce  0.21563712967160      0.58859303296122     -0.37689346139544
  C   2.80021151562151      0.20674904635461     -2.56094388713353
  C   1.68374755354579     -0.79312372454078     -2.79783055492875
  O   1.74462603886671     -1.79052267645077     -3.43414069044329
  O   0.54597745841416     -0.40075338854092     -2.13950476909223
  N   2.70203290288670      0.71735485948631     -1.17193938035792
  H   2.65333314682297      1.03318165068703     -3.25649679314564
  H   3.75920066221784     -0.25608726938899     -2.77806338226721
  H   3.03488569462044      1.67546436296324     -1.12982470643966
  H   3.31847050788514      0.17977886816399     -0.56979368691611
  N   1.24863832015830      0.73937928468617      1.89773957118153
  C   1.39287276691655      1.94748896485127      2.46542630996728
  C   1.92471171371990      2.12035668258149      3.72803565033235
  C   2.32237367702381      0.99541318180694      4.42961917991347
  C   2.17518524929919     -0.25649918990599      3.84959597755455
  C   1.63403197481141     -0.35981754161085      2.57982268041297
  C   1.44805441612121     -1.66198725622509      1.88438430816471
  C   1.78487283254518     -2.87458634558561      2.45977218872737
  C   1.58903589283274     -4.04674223965423      1.74283938423565
  C   1.06147928405517     -3.98039247188673      0.46547991026827
  C   0.74744755627881     -2.73726886436810     -0.04961185546709
  N   0.93236351289966     -1.60091988996749      0.63892800497235
  H   1.07278001150709      2.79849687886379      1.87776197801782
  H   2.02356702224984      3.11260709137484      4.14180715621547
  H   2.74533033445293      1.08563437982081      5.42041397398766
  H   2.48496578874066     -1.13475333244515      4.39308317762675
  H   2.19697743864294     -2.92126505679891      3.45516568906699
  H   1.85083582434876     -4.99929339087322      2.18192192096455
  H   0.89970028928646     -4.86661064078136     -0.12960783020444
  H   0.34659866741054     -2.63877322999113     -1.05032793787363
  C   -3.51187028169084      2.39275511230674     -1.46934080039096
  P   -3.44034728950238      0.81381141426034     -0.64772882870754
  O   -1.96628345542320      0.49480457412324     -0.25377810640639
  C   -4.44362792164431      0.86136052314849      0.82264569891850
  C   -4.04699635920219     -0.45381666753068     -1.74192033573348
  H   -4.54563473456874      2.63326286970847     -1.71834839796023
  H   -2.92519695486474      2.36146459369959     -2.38709190080438
  H   -3.11155930067243      3.16750052578571     -0.81635740198698
  H   -5.48001488309615      1.06734085351863      0.55449713466447
  H   -4.08749736058594      1.64687440844830      1.48775919816486
  H   -4.39350153651953     -0.09875025298792      1.33430275045750
  H   -5.07378531957225     -0.23106095021584     -2.03272271335065
  H   -4.02280521266227     -1.41936558560642     -1.23842448064213
  H   -3.42675036527772     -0.49621294211288     -2.63676154753679
  Cl  0.28462579142869      3.05012974786791     -0.84214839463072
