45
Coordinates from ORCA-job orca E -2030.413772327641
  Dy  -0.99760144392350      0.25275769644851      0.15537537404891
  C   0.68389159803306      3.77640967139421      5.85692158140161
  C   -0.61792714510649      3.15633665810744      5.68674619331819
  C   -0.88669716418374      2.39413520088339      4.61865769693280
  C   0.14720276904532      2.18997051752185      3.59246722685401
  C   1.47864119308105      2.79532801460509      3.78493455934822
  C   1.71340476059819      3.55237825880241      4.86572292081668
  C   -0.13590030330094      1.42842615868526      2.41500020937214
  O   0.74891761891788      1.24829478457748      1.50305193584842
  O   -1.31709411124350      0.91181016257243      2.24413931531256
  H   0.88498012567443      4.38785974671999      6.72211574720036
  H   -1.37185879925646      3.31852799710196      6.44473379765977
  H   -1.84584708380459      1.92126646472728      4.47377543496627
  H   2.23176866875687      2.61278525289553      3.03397514707352
  H   2.68379783305263      4.00611711132406      5.01358531792334
  C   0.28729153803842     -2.84380493833352      1.37028754423853
  O   0.47732858207842     -1.45566143996474      1.03044628713020
  H   1.22540558351908     -3.38399061352997      1.26351760910874
  H   -0.44788840574073     -3.23275373905693      0.67500643126804
  H   -0.08522380153764     -2.93503074023626      2.38871006790628
  H   1.10347045917557     -1.03523773543918      1.62987392730894
  N   0.96350870545748      0.38859934902340     -1.39337359281073
  H   1.65571641447615      0.90661309826873     -0.85848515111239
  H   0.86570313466050      0.85498451720071     -2.28843819909925
  H   1.35750400398569     -0.52850674599751     -1.57726584547106
  C   -6.03789203802910     -3.39108322314199     -2.83913961414196
  C   -6.17833961552970     -2.01730356964773     -2.68865234249401
  C   -5.16413491872030     -1.28049830389323     -2.10156205006770
  C   -4.00901082739679     -1.92407765603059     -1.66581886101655
  C   -3.86878671125011     -3.30113549398915     -1.81651857583285
  C   -4.88551093396677     -4.03346145298697     -2.40452677871215
  C   -2.92911020467193     -1.14188990477264     -1.03494149106288
  O   -1.86957749017920     -1.72002962471416     -0.61289513256184
  O   -3.03040926004525      0.12068623044345     -0.89666107960553
  H   -6.83203435327969     -3.96509766839214     -3.29703328813825
  H   -7.07894425955628     -1.52493813192432     -3.02776887037125
  H   -5.25412581922091     -0.21150135001146     -1.97161640727909
  H   -2.96500781643009     -3.78241293033739     -1.47114858334916
  H   -4.78373075481172     -5.10302417072209     -2.52377188095854
  C   -2.01568526631989      4.98618310988725     -1.34931936945555
  C   -1.58954079446228      3.65152238425467     -0.96608075251239
  N   -1.25766014189698      2.59845584857929     -0.66446435235683
  H   -2.83865031147336      5.29720504734169     -0.70934733079660
  H   -2.34747755472944      4.97660094157561     -2.38528698237262
  H   -1.18596565848280      5.68058521018013     -1.23772779345860
