4
Coordinates from ORCA-job orca E -1032.080598493277
  Cf  -0.01450204926929      0.00385045222350      0.06482960774156
  F   -0.64576764665514     -0.98965485235498     -1.56536053729846
  F   -0.74200753722089      1.88656486042088      0.04430166824335
  F   1.99876723314532     -0.07887046028939      0.01962926131355
