5
Coordinates from ORCA-job orca E -11242.230480521765
  No  0.12681668769354     -0.97432344836499      0.22892452603827
  Br  2.76044882929783     -0.04136316523918      0.31971172682911
  Br  2.07541386831230     -2.85122840077013      0.95773175901614
  Br  -1.93816485264524     -0.72617410964259     -1.64527150310195
  Br  -2.33002453265843     -0.05395087598310      1.21096349121842
