28
Coordinates from ORCA-job orca E -2355.075887880808
  Ho  -0.20864111478450     -0.39607886191514      1.04412916123086
  N   -1.21449271126567      2.30886389702505      1.05102517403568
  O   -1.64498942903525      3.44735522796617      1.09850334900953
  O   -0.07808295859481      2.04549536127544      0.57992629401591
  O   -1.89204775092667      1.32764128332243      1.47910489151248
  C   -5.14822633372310     -2.90221365499887     -2.30463618553151
  C   -4.43136916494633     -2.79167607009170     -1.12089952800929
  C   -3.25262648652626     -2.05602137680497     -1.07384289386914
  C   -2.78491113605843     -1.42381225332036     -2.22182331896287
  C   -3.50536872756877     -1.53824027027127     -3.40642281777301
  C   -4.68145059952492     -2.27206203435171     -3.45230022446768
  C   -1.49454495842766     -0.60195925065235     -2.21841541774980
  O   -1.13640903457395     -0.09276565895509     -3.27653822190791
  O   -0.90354325425351     -0.52665152440343     -1.09255994467560
  H   -6.06755784602069     -3.47642830188804     -2.33404311553756
  H   -4.78842647197852     -3.27942257702348     -0.22198347926827
  H   -2.69761983357051     -1.97593204716975     -0.14639094391535
  H   -3.11267245182741     -1.03532130398935     -4.28021962248361
  H   -5.23576610427969     -2.35372543470849     -4.38064929562762
  F   -1.57457349654975     -1.80458361938604      1.71527442999248
  S   1.96297236008965     -1.83460849895782     -0.12975672724039
  C   3.03371780749663     -2.13216119958917      1.12972159493526
  N   3.81315261044632     -2.36839724640430      1.95775322517900
  C   1.83884022008933      0.36195901968234      3.69024287229901
  O   0.91897021853248     -0.00350436813304      2.73792312485947
  H   1.42803069559202      0.28546933629828      4.71214628742884
  H   2.17379612882816      1.40561907788351      3.56554569057517
  H   2.73553982336214     -0.27223765043866      3.65458564194593
