17
Coordinates from ORCA-job orca E -2268.014194141521
  Er  0.21620676121131      0.76328505555813      0.47760230581921
  Cl  1.44295981726750     -0.30903865454268     -1.39043947022671
  F   0.46305978003234     -0.03678249138605      2.28359330471239
  C   -2.12851210367626     -1.20830451728465     -0.91759968807593
  C   -2.84908851514538     -2.35810779884204     -0.24753506744643
  C   -3.59760651729885     -1.64780468413443      0.88101543614650
  C   -2.59245531698866     -0.60924853709593      1.35500992660011
  O   -1.73731715703229     -0.34911477229598      0.19348761620485
  H   -2.78859527475919     -0.63491379742176     -1.56935860728967
  H   -1.22287494098758     -1.47791017078315     -1.45426871297784
  H   -2.12774011673946     -3.07047517356655      0.15365507131497
  H   -3.51042103061723     -2.88182860305447     -0.93390806348096
  H   -3.89042378743448     -2.31630455329261      1.68697948223917
  H   -4.49434968810515     -1.16436871895404      0.49353610718380
  H   -1.94488317308411     -0.97410293211517      2.15052782074909
  H   -3.04293160031800      0.33532440996991      1.65235140656661
  Cl  -0.43652713632445      3.14489593924152      0.44595113196083
