33
Coordinates from ORCA-job orca E -2533.270861598752
  Er  -0.16290641584653      0.75359364084552      0.89574499121606
  S   0.53280063340194      0.96942780687274      5.66358485420376
  C   0.36811609097904      0.91812316399620      4.12583550260850
  N   0.24621131456522      0.87768999629088      2.91793673935903
  C   3.67878174446410     -1.67270693617841      0.47008968200772
  C   2.62427285480204     -0.87514928252203      0.89183003433419
  N   1.59644151827100     -0.60858276339274      0.07100937217391
  C   1.63314118666996     -1.14248199140773     -1.16001840078569
  C   2.69706583582399     -1.93289523531878     -1.55953280015425
  N   3.71438725912508     -2.19704775422021     -0.74716509145083
  H   4.50561515888587     -1.88842926288376      1.13397248957550
  H   2.59692406644277     -0.45406256549200      1.88908190309676
  H   0.80450973088515     -0.93936743535823     -1.82784617892099
  H   2.72693209494666     -2.36044391321668     -2.55309837150282
  C   -3.93320242235367     -0.78458196198056     -2.56432303639142
  O   -2.84858298008223     -0.38409912104669     -1.66462716001820
  P   -3.09262282113439     -0.19804755223168     -0.11208726405365
  O   -2.28309585236391      1.27521917093828      0.13138535273986
  C   -3.07151105837613      2.48593966084229     -0.10896992300781
  O   -1.68002237555495     -0.92278331907805      0.47335586059241
  C   -1.71230761835839     -2.37471794432193      0.66268839016610
  H   -4.05019605704460      0.00115546828339     -3.30202328213216
  H   -4.85828743405746     -0.92517953574003     -2.00869283466894
  H   -3.63394416061421     -1.71165885641945     -3.03991708298361
  H   -3.14799249529438      2.65169119270876     -1.17977752171751
  H   -2.55345465039181      3.30935342303715      0.37064279445303
  H   -4.05610504421162      2.36740233485587      0.33743816601692
  H   -2.63823505397953     -2.64967146330199      1.16220328296726
  H   -0.86803310935730     -2.63509011608457      1.29235243417840
  H   -1.63296886672507     -2.85971631466839     -0.30605239892085
  O   0.63736854339275      2.89529302891419      0.46985670789536
  H   0.99757747142334      3.39756504559373      1.21464117525480
  H   0.77502291166732      3.43625939168495     -0.31771838613084
