27
Coordinates from ORCA-job orca E -1913.420544577496
  Pr  -0.34818859092850     -0.34105282197630      0.62871016748865
  N   0.56780637695756     -2.42789326393463     -0.14577651612341
  C   -0.21345099519094     -3.50556620650040     -0.35380693996279
  C   0.29524991757272     -4.75337597413234     -0.64749508337286
  C   1.67238442772120     -4.89450157329436     -0.72806273969989
  C   2.49006082983198     -3.78791359712441     -0.51974909819576
  C   1.91748496163712     -2.56583691727742     -0.23251500569312
  C   2.70195271294946     -1.32831362836739      0.00539740109209
  C   4.07435371802181     -1.24286756000752     -0.12062331827833
  C   4.71038453234636     -0.03001443872400      0.12363562657825
  C   3.96285463156743      1.08228097006080      0.48851017484937
  C   2.59870429174383      0.93432438131540      0.59574077490808
  N   1.97519237702726     -0.23907077458676      0.36403452889429
  H   -1.28825627166710     -3.36163531209129     -0.28561079153084
  H   -0.37077866282932     -5.58915367008415     -0.80537795888787
  H   2.11299179206103     -5.85729194731451     -0.95038462579995
  H   3.56215184670979     -3.89838177328170     -0.57831813620021
  H   4.65937334709786     -2.10221546761500     -0.41045098067988
  H   5.78551500594960      0.04360595711776      0.02665302451643
  H   4.42590616839435      2.03871647689913      0.68268126919658
  H   1.97374881149343      1.77927682053640      0.87484417790488
  I   -1.50093436464774      2.75268806180111      0.52461672354175
  C   -0.47441030640003     -0.01321990771213      3.44356331121562
  O   -0.52402731674806      0.13624524917231      4.54418770267590
  S   -1.92748806184042      1.82323999332347     -3.52514850705230
  C   -1.53975993543054      1.53732006517745     -2.09455916952677
  N   -1.20852124340066      1.26040685862082     -0.90469601185792
