23
Coordinates from ORCA-job orca E -1596.375071953048
  Tb  -0.58588472095565     -0.40686627486250      0.10895142464637
  N   1.52568376432278     -0.70670421526364      1.51638824141171
  C   2.66978981047236     -1.10619566793408      0.65236794948044
  C   2.24626317540026     -2.22241512000546     -0.28040137347378
  N   1.12613790797974     -1.76556661206069     -1.13851739596262
  H   1.79849879257679      0.09494572704409      2.07739415496074
  H   1.34842044139118     -1.44779648163748      2.19205448834144
  H   3.52715625797906     -1.42398172364228      1.24518091644104
  H   2.97519777184538     -0.23072682554647      0.07683722155940
  H   1.89688056122952     -3.07971154048987      0.29673057160475
  H   3.10022872924243     -2.55238391813427     -0.87153843158273
  H   0.72371204397856     -2.56294191034016     -1.62393399743273
  H   1.48146041768166     -1.15948102424476     -1.87563421080668
  C   -1.02271382288929      2.88696088714263      0.04853732171395
  C   -0.81794672104324      2.33823310229316     -1.36856942748113
  O   -0.84193251775931      3.06434168024160     -2.31501323738969
  O   -0.57196123081866      1.02910652013685     -1.40466221997666
  N   -1.26926196376871      1.81584921003547      1.05499976126460
  H   -1.82610519945139      3.61948905080889      0.02569915685740
  H   -0.10885993053139      3.41592337213958      0.31681590019702
  H   -2.27373496969999      1.67691831081696      1.15360651178519
  H   -0.97261223994102      2.13715838756158      1.97044060653714
  I   -2.71051635724112     -2.01175493405917      1.10396606730484
