4
Coordinates from ORCA-job orca E -1855.844195187500
  Ce  0.23226108977529      0.34131135661932     -0.55357941088400
  Cl  -1.04392722768920     -1.53298223978586     -1.72593464800229
  Cl  -1.10057380984081      2.28762329619204      0.42507542862762
  Cl  2.50872994775474     -0.27406241302551      0.41783863025868
