51
Coordinates from ORCA-job orca E -1196.984443475617
  La  -0.48138873992905      0.29840803434938      0.49451965298571
  N   0.89894208168081      2.13313030375271     -0.81025400685783
  C   1.68246571394640      2.99357519945552      0.12969754734665
  C   0.80273327557970      3.43316421990903      1.27953361146212
  N   0.33092464668516      2.27009450502718      2.09021128149639
  C   1.36176815636702      1.75857657238806      3.04802826815097
  C   1.82070134542807      0.35295798029505      2.70581106868226
  N   0.65673925061469     -0.57388259128031      2.66686677514327
  H   0.29343524769749      2.74277396078331     -1.35979754379669
  H   1.53776677203869      1.74029156396170     -1.49957849673944
  H   2.53662801051706      2.41692126461673      0.48637484848749
  H   2.08148740857770      3.86798426553150     -0.38281482928072
  H   1.34062886231398      4.14368204130202      1.90889744631500
  H   -0.07826802935125      3.95264343154086      0.89632550663721
  H   -0.43881837708178      2.62433093740860      2.65094485362741
  H   2.22273816392667      2.42691456301309      3.06722822091244
  H   0.94014966622122      1.76752676338497      4.05378328019824
  H   2.30516468277419      0.32567556987259      1.72110229092534
  H   2.57321220854421      0.02544458636270      3.42304074671097
  H   0.99551865683224     -1.52622710459676      2.54209850887697
  H   0.19023020547089     -0.56923470728423      3.57133245994790
  C   -7.75366517902753     -0.15089255984036     -0.17620271050680
  C   -6.94569834321613      0.82623102190211     -0.74938806915192
  C   -5.58401483217924      0.79726660556839     -0.53806152777276
  C   -5.02418967880538     -0.22084821171112      0.25304867925155
  C   -5.85109381193447     -1.20364503360608      0.82889953145779
  C   -7.20934821894473     -1.16416364205535      0.61260312281186
  C   -3.60883533926686     -0.21610397786442      0.44497198162495
  O   -2.80724511586936      0.64025222085730      0.00439715572297
  O   -2.97588703485159     -1.17691950550813      1.15093106239107
  H   -8.82202021940784     -0.12552608095297     -0.34308927760475
  H   -7.38441464871383      1.60375808039342     -1.35745513380743
  H   -4.94355337571469      1.54800982192650     -0.97767897045776
  H   -5.46183699212612     -1.99998400441070      1.45407679748543
  H   -7.85151427177218     -1.91279780087867      1.05284329767812
  H   -3.57079036836087     -1.86550646980279      1.48053959529951
  C   2.76978217844188     -4.22304607949702     -4.17298377826379
  C   3.44057561869450     -4.53326047819193     -2.99305719076383
  C   3.06745001263780     -3.92379712759799     -1.81447329318659
  C   2.01673269961983     -2.99072212168390     -1.81058923058573
  C   1.35558860379097     -2.67832067794903     -3.00781421140620
  C   1.73015731043924     -3.29784519192862     -4.18133304905252
  C   1.59393604722121     -2.34728861204837     -0.59302182902603
  O   0.78830126507115     -1.37766468262554     -0.54869890928646
  O   2.03205047945734     -2.73992378037515      0.58646337672888
  H   3.06267647869980     -4.70693466739339     -5.09473438017667
  H   4.25330260218040     -5.24477941904358     -3.00087840042038
  H   3.63040697922677     -4.16636131374119     -0.91987050974722
  H   0.54069992878325     -1.96896609226552     -3.00403132247854
  H   1.21699911081557     -3.07018060101411     -5.10426824094086
  H   2.59668890625688     -3.52419097845543      0.52260394295239
