22
Coordinates from ORCA-job orca E -4267.680493005273
  Sm  -0.27824612333516      0.09476289189686     -0.18152504105887
  N   1.69983257737908     -1.36571723382548      0.47354886865050
  C   1.59654708194600     -1.77786769154149      1.89498762962032
  C   1.22337737230164     -0.58422793978799      2.75101725364816
  N   -0.11379366861109     -0.07547458340179      2.35468649248777
  H   1.79094544851760     -2.19001972524390     -0.11194217674120
  H   2.54858607019969     -0.82209677205948      0.33780023870858
  H   2.52823280353845     -2.21351104244582      2.25679699365680
  H   0.82221301202514     -2.54336389900219      1.95977501209986
  H   1.93896907267425      0.22528317994775      2.60109123606843
  H   1.24832260329312     -0.86325532652548      3.80455566210028
  H   -0.28179563245843      0.81016003423252      2.82234560291804
  H   -0.83083823937895     -0.71805854947094      2.68227868095740
  I   1.36585157003810      2.53493039928507     -0.03865399478921
  S   1.78594343886474     -0.36874176629605     -5.05600153939985
  C   1.14681552272678     -0.30897139707679     -3.56130554135470
  N   0.69105765197904     -0.26436182771162     -2.49023579834043
  Br  -1.93291161529159     -2.05503923987568     -0.13325395356125
  N   -2.37066622303365      1.57339690110137     -0.25704705769199
  H   -2.68558122981960      1.74443651770040     -1.20852424459807
  H   -2.22570125187980      2.49091116841553      0.15476480507410
  H   -3.15916024167540      1.14122590168525      0.21654087154528
