6
Coordinates from ORCA-job orca E -853.054990646802
  Fm  -0.02193508328130      0.16783159158608      0.28504749473055
  Li  1.43963781820689     -0.08183647711447      3.06508189293514
  Li  -1.37034128680262      0.07795866858604     -2.28979711899768
  H   -0.63722083639863     -1.08540948248499     -1.27481985124840
  H   1.68377841908083     -0.39014177827873      1.35514915428258
  H   -1.09390903080517      1.31159747770607     -1.14065157170218
