40
Coordinates from ORCA-job orca E -1665.874244185250
  La  -0.09733259068904      0.06933202204298      0.09250971669809
  N   0.58948181908801      1.98071868509865     -2.28774825841909
  O   0.83433704404188      2.73066496214678     -3.22678790220502
  O   -0.06881141002743      2.37781176233121     -1.29046194831655
  O   0.98705148302853      0.78747194557206     -2.28523143314069
  O   2.03633659062299     -3.03857687353079      1.61787751335767
  S   0.55646979622874     -2.49508105787214      2.07937335111962
  O   -0.23193601787312     -2.50847908118383      0.80122971164129
  O   0.79611329641331     -1.04986505816535      2.39234150459497
  C   7.29385633067807      0.27448525935686      0.22747873933411
  C   6.66129697765014     -0.91142337898762     -0.12223474977237
  C   5.27522337649180     -0.97626760144729     -0.15618727405554
  C   4.51283101778325      0.14055233174209      0.16098449485717
  C   5.14870644448912      1.32554453562537      0.50997739447367
  C   6.53395067057225      1.39408235298446      0.54319552877839
  C   2.99599950380265      0.07538213880997      0.12828320456314
  O   2.36720625652346      1.10790803971701      0.43317888265280
  O   2.47091199069831     -1.02063621225485     -0.20810456204955
  H   8.37605157746548      0.32650656168102      0.25323356048485
  H   7.25013226275571     -1.78663005256412     -0.36945624428472
  H   4.75705732632556     -1.88533593320242     -0.42937910976829
  H   4.52821948357414      2.17852779360500      0.74882029655365
  H   7.02392495539238      2.32148111358179      0.81483376647523
  H   2.33621751596020     -2.41320454876074      0.91893351390210
  C   -3.71477544986656      1.65580689126672      0.85423274537137
  C   -2.43720208514326      2.26782281369846      1.43420360115292
  O   -1.39836517141627      1.37158270517124      1.45356180449377
  H   -4.53357394282329      2.38450634370593      0.82034181491137
  H   -4.02643728859754      0.80316122491614      1.46245406880627
  H   -3.51615433068254      1.28732708426771     -0.15382586544313
  H   -2.66666397733593      2.63959906655610      2.45368649477979
  H   -2.18953188899906      3.16491227189139      0.83775624090227
  C   -3.39981670814289     -2.36562282071071     -0.94234441223855
  C   -2.81072043329560     -1.29657684828460     -1.86583871419974
  O   -1.80599265637468     -0.59623556880108     -1.25980195566065
  H   -4.18026539767979     -2.95038437968047     -1.44441293316705
  H   -3.83007064089747     -1.89022702895359     -0.05819493762399
  H   -2.60547292792599     -3.03189976530869     -0.60353932539522
  H   -3.63552228290947     -0.62905228934567     -2.18853190420114
  H   -2.46043051890640     -1.79698940671501     -2.78960641996329
