24
Coordinates from ORCA-job orca E -1735.478851269314
  Er  -0.29418818033482      0.02979070878920      0.20735957176784
  N   1.60834948762762      1.32819691567401     -0.85186189544435
  C   1.37398882484468      1.56668839911289     -2.28624758140118
  C   -0.07307574104570      1.96651226862823     -2.50726305715054
  N   -0.96477230890046      0.90412675050381     -2.01248972237342
  H   1.53711648936431      2.19594564726310     -0.32867265923340
  H   2.53884745639101      0.95784054766195     -0.70017096513595
  H   1.58374331102041      0.63443303658740     -2.81244409575094
  H   2.03039574093141      2.33865089659946     -2.69439105642969
  H   -0.23456485465961      2.18943301122396     -3.56409622731700
  H   -0.29475843357138      2.87059421198265     -1.93793587320267
  H   -0.95656795195359      0.10128949048513     -2.63478507756347
  H   -1.92813979021226      1.21755107517590     -1.97288852292209
  N   1.63713980906874     -1.91078973201393     -0.41816418859412
  O   2.50664575385330     -2.69811342116858     -0.64821184201428
  O   1.46841734272999     -1.40694509621101      0.75173046891578
  O   0.82201842843607     -1.50157638256554     -1.30113698380235
  F   -0.44505579541802      1.89154738458052      1.02971598033123
  N   -0.93000225315986     -0.68304635754308      2.50319519903943
  H   -1.80724573171836     -1.18948316350733      2.43963313818211
  H   -1.09770383135278      0.15118871218996      3.05504023044230
  H   -0.26856066560064     -1.26473602274438      3.00386308832987
  C   -2.49012178482048     -0.94413879648492     -0.17033039826490
  N   -3.56990532151960     -1.33386008421948     -0.32124753040814
