6
Coordinates from ORCA-job orca E -2675.013800134140
  Ac  -0.16131912900313     -0.28554680985807     -0.00390107851310
  Cl  0.94478581036316      0.36097851593601      2.55791918373988
  Cl  -0.15064062816177      1.09514607983934     -2.51381205211114
  Cl  -1.42544978928245     -2.62253468677185     -0.08260344153014
  Cl  2.61124280528445     -0.51233997804353      0.67881596838414
  Cl  -1.81860906920027      1.96429687889809     -0.63640857996965
