4
Coordinates from ORCA-job orca E -903.702352461423
  Pr  -0.50569545676145      0.59128030195698     -0.28723013699307
  C   0.62279804078861     -0.86049390864122     -0.72955820316495
  P   -1.91257698670113      2.40398974543314      0.30887962800571
  Li  2.39196440267398     -1.31288613874889     -0.72869128784769
