4
Coordinates from ORCA-job orca E -1442.895636996904
  Ac  0.00578081969984     -0.49306726794635      1.77607738362464
  K   -0.66928945700630     -1.08639627414328     -2.33730290323656
  Mg  -0.70440125770859      2.15752433403005     -0.49678557798322
  Te  1.96439989501504      0.24382920805958     -0.37858890240485
