32
Coordinates from ORCA-job orca E -2117.226317208572
  Gd  -0.27304544254265      0.43490900041718     -0.28955948142282
  C   2.39903439467195     -0.97557677426275      1.13549976534251
  C   1.74158001204217     -1.07242990895003     -0.22598296001575
  O   1.95738924070523     -0.13359003990076     -1.03844654379540
  O   0.67823793920706     -1.76281923392621     -0.29500665139782
  N   1.46547278175028      0.02893454392377      1.73603664436272
  H   3.41119301046085     -0.58976296301040      1.07795335535878
  H   2.37226213264270     -1.91502999744963      1.67745823132654
  H   1.96665105555280      0.85878090585519      2.02922962399346
  H   1.00280828128038     -0.32788623688663      2.56609233922198
  C   -4.07093380053295     -0.82384450898793     -0.15272048568062
  P   -2.38159304351489     -1.47060103004197     -0.16517527025758
  C   -2.30702507830599     -2.78724397956768     -1.40072498213566
  C   -2.12430204905141     -2.26212685718880      1.44138854826417
  H   -4.77455488716819     -1.62610830260274      0.07313878321276
  H   -4.32037240999328     -0.39759921463971     -1.12309798226554
  H   -4.15197160296901     -0.04674307318312      0.60577600858365
  H   -3.02596047630982     -3.57019628522413     -1.15640741905506
  H   -1.30115906770317     -3.20357815404854     -1.40870556416592
  H   -2.53691321174836     -2.39118034040651     -2.38860968103971
  H   -2.89887144524104     -3.01177529321923      1.61045807908923
  H   -2.16626445629835     -1.52164393754302      2.24112343173647
  H   -1.14765306218832     -2.74370325392549      1.44412272215316
  S   -1.28508549669221      0.80133051796021      3.93075699587675
  C   -1.45053434057763      1.22759970987927      2.40389009585221
  N   -1.56385270674369      1.50994056836815      1.25141672532882
  C   0.54989911475586      1.81963574874369     -3.35007329877673
  O   -0.38098561825265      1.85851247238120     -2.22920535222328
  H   1.11848852706012      2.74474866587963     -3.38307743863248
  H   -0.00133560639655      1.67218163798417     -4.27454866376081
  H   1.21877109919349      0.98476171134261     -3.16880617732713
  H   -0.95697378709265      2.62360390223030     -2.32029339775088
