30
Coordinates from ORCA-job orca E -4764.579530622404
  Tm  -0.44152869683087     -0.26176588741009      0.40113479977346
  N   1.17419524244228      0.70177832446259     -0.60931316514937
  N   2.11269046484442      1.21331020345988     -1.15476278012034
  N   2.99407577534281      1.69581474515644     -1.67362065124590
  Br  -0.70923325511830     -0.44153423736203      3.04589830466107
  C   -2.96079247016052      1.74503218091926      1.12168683942717
  C   -3.73064306779261      2.85543078708929      0.43166477017674
  C   -3.24508453448918      2.73028924746867     -1.01172309208265
  C   -1.76815080240455      2.44534650363858     -0.82408686775248
  O   -1.69177170761265      1.67371536668069      0.40888091597728
  H   -3.46197416224574      0.78170373714881      1.01326528147262
  H   -2.73477063413721      1.92222474832450      2.16918234755251
  H   -3.45559287507871      3.82595851985380      0.84639826724604
  H   -4.80545602103097      2.72643486701431      0.53671715722503
  H   -3.41476555357739      3.62648690472124     -1.60458674992572
  H   -3.72596380259191      1.88440909534890     -1.50350011502334
  H   -1.18056507768035      3.35215554033671     -0.68023515365745
  H   -1.33005432971062      1.85194956501422     -1.62392610710628
  C   2.03798884753879     -4.81208612066071     -0.00066070185214
  C   1.73116250523609     -4.01858499590124     -1.09522259754762
  C   1.08135904877893     -2.81921916642705     -0.88075636516011
  N   0.73879614709455     -2.39115669370056      0.34087274997944
  C   1.03736746279306     -3.15986749665751      1.39403751114515
  C   1.68508562764855     -4.37514003912159      1.26484075145102
  H   2.54363199024933     -5.75880151903195     -0.13372197263831
  H   1.98514495226087     -4.32021978401775     -2.10071648047582
  H   0.81425000955276     -2.17448868266495     -1.70848351188475
  H   0.73940038651447     -2.77508855322826      2.35986355276287
  H   1.90248011541416     -4.96182733178959      2.14515745085448
  Cl  -2.13268158524942     -1.13665982866449     -1.20418438808256
