19
Coordinates from ORCA-job orca E -1691.849897754417
  Er  0.09825620378594      1.16921358550997      1.05812540793110
  F   0.47941449687577      0.55734126640922      2.93592096580620
  C   4.59942513484830     -0.89219368663743     -0.39724876428080
  C   3.72095193944950     -0.41652854599041     -1.35887601868492
  C   2.52359615052290      0.13226501618584     -0.94547533211637
  N   2.18288928916619      0.22248581892229      0.34554379394423
  C   3.03137115568559     -0.24023825523157      1.27300549606542
  C   4.24909672676174     -0.80358238855025      0.93993501192540
  H   5.54489966267911     -1.32852945603320     -0.68846461644827
  H   3.95376230884116     -0.46904222725722     -2.41177645287896
  H   1.80520653281623      0.51027054519308     -1.66194686565013
  H   2.70165271837962     -0.15248648914805      2.30053064519236
  H   4.90312624961892     -1.16496152788969      1.71927148707981
  N   -1.22507546589864      0.00637495962337     -0.17643722136880
  N   -1.97693996598802     -0.68257300675862     -0.81245094307867
  N   -2.67871641561091     -1.33109416847496     -1.41485554777651
  N   0.36881502124227      3.24583163918184      0.57437674128651
  N   0.51559375155604      4.41457070157281      0.33646739274525
  N   0.65691962969706      5.51215803918945      0.11027110994958
