16
Coordinates from ORCA-job orca E -6198.910604177910
  Eu  -0.75321833483332     -0.46308723444680      0.60710828836776
  C   2.24420512925734     -1.93514353337762      0.54833618196091
  C   2.21031097218222     -0.80091794566306     -0.48684106729658
  O   3.18215364519684     -0.58189982640015     -1.16363437510924
  O   1.08935381932116     -0.12274980173255     -0.50293229882265
  N   0.88869695899467     -2.37845320849720      0.94733647400815
  H   2.74697694487167     -1.53521456818246      1.42911974571671
  H   2.85463490033781     -2.74643905636295      0.15748081491957
  H   0.91459789334003     -2.81758122086411      1.86025089714115
  H   0.54979112722233     -3.08915284643981      0.30505512632820
  Br  -0.89073979289279      0.65421321560748      3.07187472655617
  N   -1.32770428619563      1.67699690695269     -0.63464596270128
  H   -0.47272276469330      1.90951309587577     -1.13255329447953
  H   -1.56168301625699      2.46451643076830     -0.04000496094791
  H   -2.06505892079032      1.58674270853223     -1.32531798057835
  Br  -2.48359427506176     -2.15054311576967     -0.63813231506297
