70
Coordinates from ORCA-job orca E -2529.286796920950
  Gd  -0.06724304771346      0.15450898052715     -0.03396755467379
  C   -5.63352638425569     -3.54798085388436      2.48987024422271
  C   -4.34640641677601     -3.81174080093172      2.93992829497924
  C   -3.27758917670664     -3.06793936300743      2.46042577852170
  C   -3.49103138002524     -2.05655951766081      1.53201850069493
  C   -4.77969780045018     -1.79318841403971      1.08414136050160
  C   -5.84876088812136     -2.53780563999192      1.56086859848285
  C   -2.32871225282012     -1.24918682230417      0.99925914826253
  O   -2.56959583100258     -0.32524371521278      0.19449494224867
  O   -1.16857458209879     -1.56237195009255      1.38435454228205
  H   -6.46809627613785     -4.12860355018243      2.86301036664934
  H   -4.17682725641441     -4.59770477823556      3.66527907443469
  H   -2.26539319003049     -3.25096254556712      2.79427949615685
  H   -4.91596167810025     -0.99977431730772      0.36182387337071
  H   -6.85172594101328     -2.33112514821431      1.20891975255924
  C   -1.15780616477640      3.54617328494041      2.94774081853851
  C   -0.35665210545892      2.35693096329448      2.45905129511726
  C   0.92330019675510      2.15215156433264      2.99699418485862
  C   1.78511040813533      1.10826485854373      2.62477344593655
  O   1.53739728861030      0.20490493227779      1.79229539616314
  C   3.15678013915638      1.05146821117376      3.26778788508314
  O   -0.92408094726614      1.64563032391543      1.59591820691025
  H   -0.66685683108330      4.08093513448149      3.75876885415082
  H   -2.13908219177038      3.20031936613372      3.27199355749133
  H   -1.31065917001524      4.22264287004145      2.10606611952245
  H   1.27904546409451      2.86208035482477      3.72948953046887
  H   3.27641282522084      1.77047987329964      4.07624163193587
  H   3.90281026813405      1.25332111382694      2.49681772215645
  H   3.33221559858181      0.04260728544452      3.64147737134628
  C   -2.72658225658456      2.48074020257590     -3.03647348237733
  C   -1.95820591840481      1.27439891975503     -2.53765535715706
  C   -2.29326886214752      0.01292791397712     -3.05246019020771
  C   -1.68121679406935     -1.19197002998090     -2.67153833950879
  O   -0.73818020630678     -1.31821721331116     -1.85546813415312
  C   -2.19893979986557     -2.47885572066230     -3.28287486335331
  O   -1.07065642755614      1.51812609065005     -1.68532691685580
  H   -3.41437624021922      2.23798224355351     -3.84439784789814
  H   -2.01622800850207      3.23774001529780     -3.36787413169609
  H   -3.28416248109650      2.89968232939606     -2.19792705841318
  H   -3.09748360106250     -0.03737632427066     -3.77209358215752
  H   -2.91868100610037     -2.30895961362309     -4.08155334646928
  H   -2.67393944166052     -3.06287798165785     -2.49219109848654
  H   -1.35624678172383     -3.05773918442066     -3.66100985372078
  C   5.56302314633774      3.71689285326790     -2.62104580480643
  C   5.27942216417453      2.42594318470637     -3.04751294023513
  C   4.16942208880554      1.75882155479920     -2.54931215944298
  C   3.33766979123516      2.37925893510846     -1.62558329511469
  C   3.62223866248874      3.67147519429295     -1.20132834238527
  C   4.73306519866427      4.33863297858252     -1.69668849683863
  C   2.12994610345168      1.65416132347919     -1.07553111188118
  O   1.38589105213490      2.26016353731178     -0.27783045276424
  O   1.94556623034586      0.46017430723903     -1.44265067414059
  H   6.42921005935824      4.23828568060688     -3.00925689320174
  H   5.92417707182301      1.94039132949998     -3.76939914757492
  H   3.92383939106857      0.75402990690046     -2.86502391477239
  H   2.95709707532163      4.13003298100870     -0.48224264546078
  H   4.95276431628556      5.34520062034361     -1.36334637838181
  C   0.79283520798845     -3.33783731001610      0.02495247389528
  C   1.94708356150172     -4.25340555089940     -0.35803450888998
  C   3.13962794623533     -3.50393202026819      0.23446929377035
  C   2.76969538107182     -2.05745433023433     -0.06500863273429
  O   1.33979939332896     -2.01587669619278     -0.00662941169629
  H   0.43018441749399     -3.54244495986353      1.03456253892784
  H   -0.04809268626046     -3.36609369633079     -0.66449814717535
  H   2.04106015630253     -4.31020514970011     -1.44458154501157
  H   1.82481713640695     -5.26310394046012      0.03329665352607
  H   4.09700338068363     -3.78638933571984     -0.20275259546262
  H   3.18876832104771     -3.66926999390043      1.31289368384369
  H   3.08617384050861     -1.75495840164963     -1.06502926304803
  H   3.15278674084348     -1.33892634961589      0.65703348113743
