4
Coordinates from ORCA-job orca E -813.441769158295
  Np  -0.05944959847542     -0.08713975699851      0.15908060648781
  F   -0.65791672598339     -0.95474642107519     -1.59846368940064
  F   -0.66769365859785      1.86388298574837      0.00048314688474
  F   1.98154998305666     -0.00010680767467      0.00229993602809
