4
Coordinates from ORCA-job orca E -3269.653030862770
  Cm  -0.41223452622750     -0.03220663374571     -0.67342732953620
  N   -0.83845970207470     -1.48828454517709     -1.55863705420331
  P   -0.38049018483002      2.09358183730682      0.40634658675453
  As  2.22767441313223      0.24879934161598      0.38911779698498
