5
Coordinates from ORCA-job orca E -957.464479928961
  No  -0.71197547054698     -0.82117468037026      0.09364034725933
  Li  2.20394759683962     -0.26302496218337      0.35401983807495
  H   1.25231332018797     -1.67597652934711      0.48302407811160
  H   -0.74886686045359     -1.28638626209568     -1.89581816435544
  H   -1.30092858602702     -0.60047756600357      2.03719390090955
