6
Coordinates from ORCA-job orca E -598.017783557983
  Am  0.14669857941491      0.23103336508706     -0.00384701890209
  H   0.19565745774978      0.32366170277552      2.02031859031623
  H   0.16728320076374      0.27094497828381     -2.02998472127520
  H   -0.87997058322979     -1.41851422015101      0.02508934789121
  H   1.92671718399562     -0.73679422834754     -0.00658251611371
  H   -1.55637583869427      1.32966840235216     -0.00498368191644
