32
Coordinates from ORCA-job orca E -2241.890345613271
  Tb  -0.47691158111484      1.70229637468803      1.15485704805519
  C   3.25346031304183     -0.52161966086725      0.79057790713982
  P   1.98593953276251      0.49123408599203     -0.05302105763745
  C   1.54629231341161     -0.53953775240207     -1.49100069564605
  C   2.96424259049409      1.82710544673505     -0.80506042321833
  H   4.05638602187449     -0.79779454063067      0.10609554409485
  H   2.80205265115056     -1.42904390582779      1.19123547398196
  H   3.67680243028283      0.03844083006287      1.62364732346287
  H   2.43459547238319     -0.82890958901105     -2.05408271000128
  H   0.88038831311795      0.04308366482247     -2.12635291306791
  H   1.02812268124973     -1.44042550817219     -1.16033106975088
  H   3.79658261194922      1.42696952631550     -1.38561531108123
  H   3.34614157362304      2.48809393688005     -0.02811075000418
  H   2.29719322953159      2.40436429959454     -1.44257126786889
  F   -0.56427627974622      1.37862214857164      3.15606495579861
  O   -0.24646707460211      2.12846234205398     -1.62693649424393
  S   -0.79804387565699      3.35896224925532     -0.94926585242636
  O   -1.98663240152552      2.77205627317209     -0.09566696012468
  O   0.24202943443981      3.58760926942849      0.21557328018108
  C   -2.25159751961059     -0.31421195848395     -0.90886526047890
  C   -2.39757606435021     -1.78806149009743     -1.22764982639626
  C   -2.51597038628251     -2.40955730256133      0.16427504070021
  C   -1.50760062988039     -1.60000157781863      0.96386641689113
  O   -1.48627425714458     -0.29506018348851      0.33830063919150
  H   -3.21019641048167      0.16605819987437     -0.71479740135763
  H   -1.69961612136189      0.27824580549137     -1.63273165371840
  H   -1.50817515274308     -2.15867108904055     -1.74004499100972
  H   -3.26235318984689     -1.98358390659344     -1.85774831113346
  H   -2.29223659430522     -3.47383084771111      0.18575802892361
  H   -3.52072820754095     -2.26080603407580      0.56040171243656
  H   -0.50366260513549     -2.02549815909193      0.89487315518584
  H   -1.76841081798331     -1.47279094706409      2.01302642312234
