5
Coordinates from ORCA-job orca E -523.398424955158
  Np  0.05356337098348     -1.24381731460321      0.72057126354642
  Li  1.69771364287938      0.69968023124001     -0.99775974708232
  H   0.22483042350464     -3.28599213451425      0.60188568841340
  H   0.22083641123320     -0.17843570209906     -1.17101343584386
  H   -1.50245384860070     -0.63847508002349      1.91837623096636
