16
Coordinates from ORCA-job orca E -3872.009468215787
  Tb  -0.29618403501994     -0.39331924281833     -0.22927039151068
  C   2.29414777749306     -2.22928098644296     -0.91807285611931
  C   2.63039290660961     -1.29201237512419      0.24275490678281
  O   3.68719736565230     -1.29502551682925      0.78937203525633
  O   1.61361452065466     -0.46406214049083      0.53114517501564
  N   0.82582070887158     -2.47749081839003     -1.00607963400735
  H   2.86380286104076     -3.14909579719584     -0.81739566913691
  H   2.61683119153280     -1.73439761096535     -1.83457813646647
  H   0.60458012576304     -3.31385944045192     -0.47276434864136
  H   0.57383246947236     -2.69641906637276     -1.96575151233746
  C   0.11284508294046      2.33446086790138      0.01905748936523
  O   0.34025428394407      3.42634828814381      0.00683195393669
  O   -2.05678630355128     -0.64213074150850      1.37832302078595
  H   -3.00247679990430     -0.56228713472270      1.19937777246710
  H   -1.97340960294778     -0.78884280022010      2.32884626379642
  Br  -1.03526255255143      0.23081451548767     -2.65509606918664
