5
Coordinates from ORCA-job orca E -893.226420111056
  Md  0.18147737608667     -0.93997002113361      0.22101506096860
  H   0.67996946991909      0.95587623698971     -0.14434251816062
  H   -0.33193931510109     -2.83242200363479      0.58357601363636
  H   0.42599014930099     -1.37432722423234     -1.70937774672441
  H   -0.03666081966234     -0.51220988067951      2.15602247582596
