26
Coordinates from ORCA-job orca E -2482.884077100086
  Lu  -0.34200054188512     -0.27491321689368     -0.18855427430541
  N   0.06713421123819      0.29146443551795      2.12593004138576
  C   1.38934179270151     -0.22444408767376      2.50509807294917
  C   2.42168736287195      0.41937428127978      1.58770791232501
  N   2.00698797985240      0.31189518892212      0.18143071491861
  H   0.09822267781248      1.31547399818524      2.04238728973646
  H   -0.65345682722786      0.02292364228579      2.78219713698469
  H   1.38352545052769     -1.30673586945856      2.36666808110091
  H   1.64727374856726     -0.00040200833408      3.54620551445002
  H   3.39973650394622     -0.03670507885413      1.75906336884641
  H   2.48358393807548      1.48035145777794      1.82307004993367
  H   2.51179507611688     -0.41008192857711     -0.31477775935587
  H   2.10238207906718      1.20878000969001     -0.29927305150029
  O   -0.94749984070031      1.83660487109777     -0.22286760716104
  S   0.04850183054064      3.04268217871395     -0.23111601175787
  O   1.06490789028921      2.62200431589526     -1.32256381290958
  O   0.77065070556925      2.94103644417805      1.08438741137612
  O   0.45789835987946      0.38057262246233     -2.27161676911739
  H   -0.27437546397843      0.45307471929073     -2.88890262880605
  H   0.70052600575203      1.36182962404287     -1.99484556042741
  N   -2.99646483724969     -1.02686343615588     -0.53892454034256
  O   -4.15110071833029     -1.34207542599665     -0.69226868870486
  O   -2.49784965020880     -0.82525464052922      0.60885370809426
  O   -2.20157695312393     -0.88203528626942     -1.51931168021613
  O   0.40999891690775     -2.19983009461408      0.04302542372973
  H   0.21827030298877     -3.12832671598327     -0.04190234122646
