17
Coordinates from ORCA-job orca E -1510.116168692140
  Gd  -0.35370723717363      0.79972773023584      0.81393076764559
  F   0.24947655599762      0.88203467676337      2.76518746777672
  F   -0.28104933227707      2.57716926247851     -0.14454074232292
  C   3.73802419895683     -0.63092650399777     -1.06354627328207
  C   2.40378724837229     -0.32849264645830     -0.84671078072399
  N   1.99624530877287      0.15136112111647      0.32887494393024
  C   2.91369295207772      0.32111336752971      1.28306589600688
  C   4.24378360105390      0.00995143466460      1.04501555376571
  N   4.66076336822497     -0.46318585935671     -0.12304297802387
  H   4.06491699669329     -1.01932241576081     -2.01888950517385
  H   1.65444510568207     -0.48250097490817     -1.61114939323210
  H   2.56597774130141      0.69749529272194      2.23620109334469
  H   4.98595585867034      0.14688255827496      1.82018088021655
  N   -1.85643258934110     -1.22786170336178     -0.43239275955889
  O   -0.58401911217544     -1.14231164482003     -0.56636915530329
  O   -2.37438376622137     -0.35931891999868      0.35253427877277
  O   -2.50497689861477     -2.05231477512317     -0.99444929383819
