32
Coordinates from ORCA-job orca E -2341.586309269121
  Er  0.08271399419193      0.70129032412026      1.12675159526405
  N   0.29496065420223      0.52182198984997      3.80011663465950
  O   0.28259052876269     -0.46479896633263      2.99579612269557
  O   0.19272143600208      1.61422134108780      3.18434136697900
  C   4.64577037139782     -0.54206783278590     -0.70195915201463
  C   3.99475581235864      0.54516851485617     -1.27156629687685
  C   2.74314561124513      0.88534624897272     -0.81014240376119
  N   2.12425407003625      0.19889251951262      0.17346328678661
  C   2.76581342498315     -0.85771932747173      0.72096751004572
  C   4.01915396869206     -1.25524412981458      0.31072900836125
  H   5.63153768341782     -0.82797944777793     -1.04235932158633
  H   4.45234577535959      1.12499018326088     -2.05931309107340
  H   2.21362619861637      1.73311115734972     -1.22689967896288
  H   2.25510942640136     -1.38800024909752      1.51821399705465
  H   4.49399616516954     -2.10344226902689      0.78110692801768
  C   -2.60578381954686     -1.12446482617653      1.23242568737002
  C   -3.53325202968349     -1.82820143257985      0.26719100125343
  C   -2.57111722926256     -2.38908910065780     -0.77962826268723
  C   -1.60097979985900     -1.24687524162546     -0.98060684496795
  O   -1.49142329922469     -0.61792312649305      0.36702006526829
  H   -2.15444202268336     -1.79911450412645      1.95673292285898
  H   -3.04462299766189     -0.26215392998798      1.73059346047531
  H   -4.23125766193675     -1.12309785501137     -0.18262816587266
  H   -4.10564476819079     -2.60394351340728      0.76965763482438
  H   -3.06815790850054     -2.65141728765407     -1.71024897253422
  H   -2.05510006354618     -3.27198815823615     -0.40388518926908
  H   -1.98963865687904     -0.48557933704537     -1.65447029108983
  H   -0.59991569732295     -1.55170416628929     -1.28037419061344
  F   -1.23768542891656      4.03417620576169     -0.71974606852712
  P   -0.85922030149979      3.92421828903583      0.76950905386302
  F   -1.62854559935397      2.49336846905744      1.04263114190095
  F   0.52409216323173      3.03859945873277      0.52808051215836
