36
Coordinates from ORCA-job orca E -2663.921271705805
  Lu  -0.46872048682070     -0.10770268874969      0.22814103046885
  C   3.51107429786565     -2.09107340192428     -0.74891511183381
  C   2.71196290327655     -1.55009041922184      0.40582100694586
  O   1.73763678934966     -0.53640434518327     -0.05932872742782
  H   2.87640048027305     -2.57541757061194     -1.49022490215964
  H   4.22159649428158     -2.82880370075721     -0.37820771376036
  H   4.08653362207870     -1.30355390387920     -1.23649684376323
  H   3.34050837193508     -1.06993178901828      1.15256735569334
  H   2.11006677365608     -2.31556597611101      0.89017695519187
  H   2.21778993042239      0.12143179378186     -0.57938705900311
  N   -0.17336893042736      0.45100705630666      2.53088665312705
  H   -0.72695980395266      1.27991239778081      2.74395112181978
  H   0.78575706583085      0.71776045468416      2.74830530211520
  H   -0.42856140883346     -0.23662059546950      3.23701881585022
  C   -0.57888118291194      2.91810050624285     -1.14488414451026
  O   -0.52290691099156      1.63995615864243     -0.52490918515765
  H   0.27660920039066      3.51597355928326     -0.83698912517355
  H   -1.49276306761536      3.43093690441904     -0.85038999068430
  H   -0.56613443542288      2.80495851281500     -2.22699954062669
  F   -2.15291075211910     -3.25901540745040     -1.43842365564708
  P   -0.61982736879411     -3.05485551621227     -1.52998294923735
  F   -0.37920815260899     -2.72029816523012      0.04724927418445
  F   -0.67039173051444     -1.45202318972575     -1.84355899830091
  C   -4.07646300139776     -1.89002910891137      1.17663161207443
  P   -3.29136706062687     -0.40884966009814      0.47873666313852
  C   -3.93485309932379      0.96052432138339      1.48960898163933
  C   -4.08916731926825     -0.17321599585766     -1.13688761058692
  H   -5.15866809786868     -1.76083879589373      1.19347121956788
  H   -3.73109431330417     -2.06244233506771      2.19513676293210
  H   -3.84093864552257     -2.76699755601345      0.57648356683739
  H   -5.02442715609594      0.96883591651730      1.45658333103247
  H   -3.56818772347389      1.91434556396799      1.11126960086011
  H   -3.62845444890045      0.84762329197698      2.52946281440984
  H   -5.17050671846169     -0.11300184704172     -1.01308962308846
  H   -3.86189396483285     -1.00559314088075     -1.80124215296938
  H   -3.73568014927057      0.74845867150760     -1.59778473395819
