6
Coordinates from ORCA-job orca E -3986.783213819529
  Np  0.01977789278176      0.13008393071164     -1.07717923490094
  Ca  -0.04752547381688     -0.22936184884827      2.16621468637732
  N   -0.18447214792311      1.08831460233901     -2.59250443903827
  Sb  -1.20964675073395     -2.33113658319843      0.20263249410405
  Se  2.27388579866517      0.10040843063643      0.57629075009197
  F   -0.85200931897298      1.24169146835961      0.72455574336587
