23
Coordinates from ORCA-job orca E -2611.406479090230
  Ce  -0.37589145849887      1.02198849623522      0.02730247031774
  C   -0.83066569240179      0.29352674256666      4.82847206901808
  C   -1.04163700083865      0.50559462546257      3.47691249879277
  N   -0.05451718443350      0.34149905841914      2.59716409522936
  C   1.13381050673495     -0.04147959132687      3.06137492236575
  C   1.31753583442930     -0.25146841362813      4.42402720583261
  N   0.34893118643921     -0.08506681129354      5.31802837718967
  H   -1.63941273803292      0.43156456756736      5.53628405681824
  H   -2.00163975658103      0.79541390402997      3.06943975722118
  H   1.93191314552512     -0.21109539056314      2.34213556763076
  H   2.28543979912349     -0.56902226272541      4.79170799881913
  O   3.60737690670067     -0.28743822897380     -1.10286994711171
  S   2.70846187271785     -1.12124179402927     -0.29599459968961
  O   1.31986382041293     -0.09042003544086     -0.11977442067567
  O   3.16030022043029     -1.21539532152561      1.11487542775374
  O   -2.49673854068342      0.84174392056822      0.87974545968437
  S   -3.14981058618716     -0.10014548832307     -0.21384110747997
  O   -3.41739958019803     -1.39448316541714      0.42483491024556
  O   -1.85395889412365     -0.25951118658558     -1.11081842510635
  O   0.17232729121978      2.98808933785336      1.04033852299475
  S   0.21530140183814      3.93056729022564     -0.22815156083775
  O   -0.87673361157710      4.90077747750881     -0.11257058206365
  O   -0.23335694201559      2.82240226939540     -1.28422269694922
