5
Coordinates from ORCA-job orca E -2607.630579532336
  Er  0.66970938429551     -0.74713335172251     -0.02561073695987
  S   2.43440353064677      1.10886153077660      0.14330791295948
  S   0.47621856164234     -3.07992574029625      1.13756190434577
  S   -1.42243881292366     -1.03084051965226     -1.56183090703651
  S   -1.46340266366097     -0.89800191910556      1.37863182669113
