6
Coordinates from ORCA-job orca E -3062.956030287564
  Np  -0.10047101941823     -0.00012251468621     -0.58129218831428
  H   1.22063260864931      0.28261104551576      1.13593817076669
  C   -0.59908293255354      1.68194176381884     -1.48798913685175
  O   0.18928504752620     -1.77196694427522      0.07876187849817
  Mg  1.64159013317441     -1.83807372352298      1.60082573723956
  As  -2.35194383737813      1.64561037314982     -0.74623446133838
