5
Coordinates from ORCA-job orca E -1307.394347367450
  Lr  0.04261207520084     -1.11089978302611      0.49454930968041
  O   1.36619518865825      0.34883616291240     -0.48743031086801
  O   0.90582121935836     -2.96578446167378      0.85774123888526
  O   -0.30385365245326     -0.63326549716070     -1.62564108090239
  O   -1.31628483076419     -0.28592642105181      1.83284084320473
