6
Coordinates from ORCA-job orca E -13345.333680998632
  Ce  -0.21120741041157      0.04154135960650      0.20461677295652
  Br  0.41863421634736      0.44111312805713      2.71783818272511
  Br  0.76491061840594      0.46281508708855     -2.42880445069224
  Br  -1.41244118812100     -2.27176325412989      0.07526016886233
  Br  2.49826731275205     -0.54605543747907     -0.43013401852471
  Br  -2.05815354897276      1.87234911685680     -0.13876665532702
