6
Coordinates from ORCA-job orca E -719.894607147439
  Eu  0.29950109023784      0.02908747595938      0.01339116062224
  Li  1.75566000242546     -0.33636494362265      2.82640278575286
  H   0.15620970838254      0.53803928372332     -2.10030679819803
  H   -2.04070563658585     -0.02302954426575     -1.29597583350848
  H   2.25768535259828      0.02977741923911      1.24564220742508
  H   -2.42834051705825     -0.23750969103342     -0.68914352209367
