7
Coordinates from ORCA-job orca E -1151.824053020619
  Pu  0.00000274651809     -0.00000285704339     -0.00000523283259
  F   0.00419757575933     -0.00223628231770      1.94924848566476
  F   -0.00419876940723      0.00223699354078     -1.94926115584427
  F   0.00057312388027     -1.96574290152017      0.00223710620833
  F   -0.00057074523327      1.96573663633444     -0.00223339473683
  F   -1.96581667206567      0.00057135086166     -0.00420229737664
  F   1.96582274054847     -0.00057293985561      0.00420648891725
