51
Coordinates from ORCA-job orca E -4604.537083678701
  Gd  0.20653486651229      0.55548305201462     -0.28128990732353
  N   0.47784471785142     -1.77122299410441     -1.12190669097098
  C   0.55882261250878     -2.80699049510160     -0.27622470705169
  C   0.57702058357468     -4.12226348299480     -0.69454543644683
  C   0.49664312410569     -4.37224144315901     -2.05505283071983
  C   0.41909925548830     -3.30692109628447     -2.93810791009944
  C   0.42086555947310     -2.01043197007251     -2.44577649814726
  C   0.38117668690317     -0.81309015467792     -3.33380278873452
  C   0.44978659821682     -0.90755494306917     -4.71305681462972
  C   0.44116940273050      0.25098859971132     -5.47717734834943
  C   0.37186710504674      1.47926257343311     -4.84437446668302
  C   0.30636372243844      1.50029279915130     -3.46388303352386
  N   0.30382401194302      0.38488696429878     -2.72038211954318
  H   0.61762833680030     -2.56127935049489      0.77804464441598
  H   0.64924390646828     -4.92352254161189      0.02566716412752
  H   0.49779149636145     -5.38667145365176     -2.42894496855059
  H   0.35730541444679     -3.49789501365472     -3.99761756947999
  H   0.52312615510454     -1.86601653619913     -5.20187855413702
  H   0.49802827864838      0.18863918816282     -6.55500738336253
  H   0.37571156987894      2.40526831676663     -5.39977541699909
  H   0.26571949841827      2.43745508991119     -2.92297275303591
  O   2.58208811775656      0.37603153318646      0.23583305017061
  H   3.26464750689113     -0.30254074632330      0.20403340723939
  H   3.02478154225416      1.22894483471360      0.34139047795469
  C   0.38573431971348      0.44991550887637      3.01665428404515
  C   -0.58548426085377      0.34270280256463      4.17174188802203
  C   -1.28006477621167     -0.98886606520033      3.88878718885992
  C   -1.46980179201957     -0.94306611762995      2.38520419636979
  O   -0.32147340296694     -0.17935685944743      1.87907122939856
  H   1.29722412879960     -0.12123244765822      3.18724736288202
  H   0.63185121948306      1.47109452117860      2.72882466311397
  H   -1.29863132928307      1.16698863564168      4.15175002149951
  H   -0.07243800579308      0.35893572707568      5.12988837570637
  H   -2.22810641474242     -1.09467924295751      4.40998200336225
  H   -0.64006747243547     -1.82483431575301      4.17047764149367
  H   -2.37414906703518     -0.40262621243854      2.10568024375418
  H   -1.46441813490138     -1.91802315887861      1.90159205462550
  C   -2.79598846545872      2.55224779010858     -1.95927927758169
  P   -2.59215306927587      1.43048501467629     -0.54172757067218
  C   -3.06464848028580      2.46544547808699      0.87823371358421
  C   -3.96675975340398      0.25112723118962     -0.72501985058875
  H   -3.80031045475519      2.97637726186944     -1.95968992039402
  H   -2.64464883638350      2.01363896688323     -2.89429904718756
  H   -2.07190059269497      3.36372714699798     -1.89246675808105
  H   -3.07541304089033      1.88138048239179      1.79810332573939
  H   -4.05776154383211      2.88794605163897      0.72447571942202
  H   -2.34601776975391      3.27659837960336      0.99046898745963
  H   -4.91406259379314      0.78480807993069     -0.80215215382572
  H   -4.01510228380835     -0.42100993106797      0.13084865358265
  H   -3.82884537321240     -0.34768457229363     -1.62469140723765
  Br  0.80404717597306      3.13464911466112     -0.07049711347191
