46
Coordinates from ORCA-job orca E -1765.862055784153
  Tb  -0.02863038183572      0.54083627637492      0.43295952687950
  N   0.30843526601892      0.58665235766637      2.87633507103613
  H   0.04240355216301      1.45140001767301      3.34905468945514
  H   1.29667477396025      0.46025696692198      3.10233855131592
  H   -0.17148898670572     -0.14598849174290      3.40129714269413
  C   6.51438757291552     -0.35264452993450     -2.07450817584838
  C   5.55986782120845      0.02893119787673     -3.02197508236002
  C   4.25618312905302      0.21648543672399     -2.63469447320651
  C   3.89522525078478      0.02237337463966     -1.28177647859283
  C   4.86984800281716     -0.36320171115599     -0.33527252255500
  C   6.17224497216230     -0.54867799462056     -0.73793031035199
  C   2.57308150343576      0.20712580910207     -0.82632193126356
  O   2.14432384131976      0.07843544317545      0.35422671754539
  O   1.54491173323156      0.57049116590566     -1.64857990390028
  H   7.53985553640354     -0.49810485609782     -2.38783955157782
  H   5.84905878963624      0.17542529972202     -4.05244253137031
  H   3.53888737805688      0.51454224512117     -3.39181959828063
  H   4.58738893706348     -0.51109196930916      0.69712391816406
  H   6.92642460658596     -0.84425307004802     -0.02311993634406
  H   1.78868782855021      0.67756899555495     -2.58035384219518
  C   -0.88149986782900     -2.59714605427566     -0.03340915936414
  C   -2.14335589040144     -3.42719302079122      0.02241182636063
  C   -3.17538664035024     -2.52388667671370     -0.65158107366892
  C   -2.86463472812953     -1.16591684936255     -0.06635686995175
  O   -1.36768275290659     -1.17421939965898      0.11047514842382
  H   -0.38544300535709     -2.65601728700411     -1.00032426677876
  H   -0.18103229669053     -2.78139315497980      0.77884819768855
  H   -2.42108060194039     -3.64285349163193      1.05339215078247
  H   -2.01047348140604     -4.37190307393669     -0.49993188382503
  H   -4.19809707079034     -2.81945488274402     -0.42848839969867
  H   -3.04945561006378     -2.51842382346365     -1.73372716957339
  H   -3.29205122144924     -1.02903152243267      0.92476050838813
  H   -3.10637289345984     -0.32823129018360     -0.71794957458733
  C   -0.08448076226561      3.84161174062114      0.01272924226072
  C   -1.09551283791862      4.85876107623314     -0.46515257145843
  C   -2.38629769036945      4.39896999280749      0.21139587018446
  C   -2.33696894503793      2.89857606370165      0.03573079051739
  O   -0.87260585276154      2.56229925721549      0.13295412041588
  H   0.29505461574704      4.06619608574085      1.00756081780523
  H   0.73083101713761      3.65128286324254     -0.68213219550081
  H   -1.18925967713451      4.83357363320502     -1.55013353794266
  H   -0.80502668538082      5.86463903093212     -0.17061518477965
  H   -3.27535633384492      4.81699287878217     -0.25532833083849
  H   -2.39669769514099      4.66715373066158      1.26726896284670
  H   -2.66266056410410      2.58535211338487     -0.95444725400430
  H   -2.85062365497759      2.33680009710144      0.81464855705473
