30
Coordinates from ORCA-job orca E -961.017758944254
  La  -0.99343613917220     -0.99882019248008      0.22396022404741
  N   -0.74119772022539      1.72132380816875      0.46390299938358
  H   0.19373322651450      2.10223027951591      0.56041285749846
  H   -1.23469097238007      1.97063447102597      1.31627139139466
  H   -1.20311713254780      2.22593740436254     -0.28937195588062
  C   2.55227906686690     -1.45981551732878     -0.21599255088302
  O   1.58378729599618     -0.51232793893369      0.26654533483252
  H   3.51595701917288     -0.97214125359045     -0.35481359614025
  H   2.19203760860530     -1.83490521826397     -1.16979040086232
  H   2.65477788219072     -2.29437228994251      0.47567245999427
  H   1.90025318907659     -0.11978115790418      1.10329783903023
  N   -0.38431103080878     -3.09257558994326     -0.68167913047952
  N   0.17394070768761     -4.01065522558160     -1.21981294246791
  N   0.70750357189029     -4.87183706889393     -1.72753470941852
  N   -0.50642822978638     -0.63031393232212      2.63286210418997
  N   0.51879977456994     -0.05962777050844      2.81857725651670
  N   1.52250809437663      0.48873396364536      2.94441777291945
  N   -3.12032966802709     -0.15212810836473     -0.57158424623968
  N   -3.28200387808556      0.92587296624773     -1.06922540754198
  N   -3.41133499076207      1.95274868607404     -1.54877876656549
  C   0.93853226448901      1.18279528271822     -3.82952722070880
  C   0.73126471831265      0.70819135151128     -2.54528267317215
  N   -0.35220640025946     -0.00674375852216     -2.23782045137336
  C   -1.21890135268139     -0.24056650175455     -3.22208278975723
  C   -0.99649948274641      0.23857752937208     -4.50520836422752
  N   0.07858166809368      0.95080867043592     -4.81554034461116
  H   1.82071446286761      1.76358463386963     -4.06596911728284
  H   1.43999804569224      0.89432188567968     -1.74932921389891
  H   -2.10790244940124     -0.80771968504185     -2.97692944787004
  H   -1.71020914951886      0.04277027674918     -5.29434691042572
