6
Coordinates from ORCA-job orca E -886.444661236609
  Pa  -0.23316900262465      0.28964938449214      1.07992617245177
  H   -0.17070920888076      1.65505196961219      2.65482963690515
  Li  0.00396571897005      0.75419986312468     -1.94993708628840
  Na  -0.85150556517356     -2.78356340223454     -0.66994566826966
  Mg  1.96165411423528     -1.29025841691094     -0.69262092258160
  O   -0.71022605652636      1.37492060191646     -0.42224213221726
