27
Coordinates from ORCA-job orca E -1410.314749753438
  La  0.09669873404747      0.46825417364195     -0.12963972544055
  C   -0.67651048310610      2.16104280818136      1.73932013978777
  N   -0.87557472787002      2.76571572477306      2.70878602595109
  N   -1.07449675298875     -1.62870644366119      0.54109939635099
  N   -1.80590982838380     -2.23680941231247     -0.17328268888641
  N   -2.50673343385797     -2.79830598958622     -0.88794481240826
  C   3.59570206138976     -0.45729056864374     -0.20560936298648
  N   2.48340572483176     -0.12642631450549     -0.35482158869586
  C   -0.19208565490733     -0.57027735643064      3.95982375093693
  P   1.11168347748476     -0.37768678341129      2.69860473456077
  C   1.96290734335785     -1.99135919970865      2.77291465810019
  C   2.29939873625811      0.73106576967043      3.52918416557762
  H   0.21934329123304     -0.91060753891571      4.91197072581608
  H   -0.92298144512711     -1.29345789234570      3.59814686570888
  H   -0.69038238517326      0.38932693947572      4.09158202887513
  H   2.25574529961821     -2.24370209202610      3.79384576066797
  H   2.84462102239915     -1.95623919026230      2.13405774722464
  H   1.29108451931422     -2.75855654499006      2.38799244284119
  H   2.58608484028510      0.34856105575425      4.51047538527113
  H   1.83766413975126      1.71187554405468      3.64070411386808
  H   3.18794499938749      0.82901206175379      2.90551215852149
  S   -1.32413701414752      2.07335974266429     -4.26725951712237
  C   -0.47358765448050      2.26577798595265     -2.88937240038701
  N   0.11195006265223      2.32441846395794     -1.87419261440525
  O   -1.38648452694432     -0.33788658177327     -2.09175258922257
  H   -1.93677002940297     -1.13580697250546     -2.10731084517022
  H   -1.55358031562082      0.17740861119812     -2.90353395533528
