4
Coordinates from ORCA-job orca E -2654.621263078546
  Pa  1.28677193061616      0.15301372406868      1.86646668160045
  Ga  -1.68078877272705      0.52483194424134     -2.87185477765618
  Si  -0.22509894289044      0.44814816822232     -0.19039377900036
  H   1.21560578500132     -0.30410383653234     -0.24081812494391
