40
Coordinates from ORCA-job orca E -2059.981674084477
  Nd  -0.28500458815540     -0.79440984587716      0.13369836877644
  N   1.15310029370161     -2.72536995024003     -0.72224277719207
  C   0.59413669162710     -3.70236259436385     -1.44132659622047
  C   1.30038640824313     -4.78881951116604     -1.91868199318181
  C   2.65159000649668     -4.86024401029647     -1.62843628817134
  C   3.23934265440296     -3.85398916039797     -0.87912118082852
  C   2.46506895099130     -2.79334785339346     -0.43430592612295
  C   3.03299403873469     -1.66873632658117      0.36506934736093
  C   4.35249064036723     -1.64342895630411      0.78682526222848
  C   4.81596010143182     -0.54854913734255      1.50049247426337
  C   3.95587531248524      0.50061811731728      1.76915281083365
  C   2.65169151694471      0.40322045571381      1.32158306691331
  N   2.19601918237714     -0.65567984348994      0.64654393382584
  H   -0.46674859768839     -3.60994782307282     -1.64731136406916
  H   0.80235465092397     -5.54991624670369     -2.49970615886001
  H   3.24750177444679     -5.68945433257648     -1.98277489230676
  H   4.29305552566970     -3.90203792631440     -0.65623031154907
  H   5.02187507864465     -2.46066993992396      0.57151851515163
  H   5.84267702266485     -0.51789192316062      1.83700434679139
  H   4.27973455519361      1.37587353408593      2.31144800764734
  H   1.94346292461031      1.20453627887390      1.49359499284338
  O   -1.30384507848338      0.40580836261572     -1.67871780217516
  S   -0.83501752858045      1.77291887846539     -1.31543303695094
  O   -0.04811427391160      1.60499496274152     -0.06188623797871
  O   -0.18840869422789      2.49022161011759     -2.35133047573021
  C   -3.15044033176961      4.51722902868529      0.11944474617455
  C   -2.11960318795742      3.63718184669829      0.05409704128386
  N   -2.22138760165771      2.53443993691515     -0.81041571917959
  C   -3.35749560419251      2.47552655419629     -1.63566841522579
  C   -4.32622307387370      3.41392956605365     -1.48721403790920
  N   -4.27945576089375      4.45008914244467     -0.62040052840934
  H   -3.07625296458064      5.34212920235307      0.81610725586161
  H   -1.22520917116350      3.70580977224968      0.64968259926579
  H   -3.40799256825716      1.65642293492640     -2.33315482773963
  H   -5.21205271516100      3.33772692270771     -2.10421322246989
  C   -2.21730057383354     -1.88441300723918      2.75675053102778
  O   -1.32684377329407     -1.54820456161380      1.71298743447502
  H   -1.65831896076430     -2.15648169062970      3.65189054375998
  H   -2.83798593355147     -2.73141361973346      2.46372932223859
  H   -2.86721634796009     -1.04150884674031      2.99285119154769
