4
Coordinates from ORCA-job orca E -775.914547203987
  U   -0.06127424155977     -0.08859171016000      0.15982437463556
  F   -0.66112912885910     -0.95992694962687     -1.60381023173852
  F   -0.66847739744498      1.86968267793932      0.00270594469836
  F   1.98737076786383      0.00072598184756      0.00467991240460
