42
Coordinates from ORCA-job orca E -954.356601945000
  La  0.43334604114847      0.40680442778151      1.00574376983835
  C   7.33127509069199      0.90468932815446     -1.82451380907206
  C   6.94352016116896      1.26321175413513     -0.54027758771304
  C   5.64245715458693      1.04454400804616     -0.12676630773386
  C   4.72458808177687      0.47305673674621     -1.00767051929387
  C   5.11973385519889      0.10690612945736     -2.29560109655948
  C   6.42345597073973      0.32307941823967     -2.70085973708757
  C   3.35509903741837      0.27570772543670     -0.52395246105549
  O   3.01092383850642      0.37700892933136      0.64445186895706
  O   2.37618906847011     -0.03164697945997     -1.39355546562456
  H   8.34956073735200      1.07469986778597     -2.14542629155878
  H   7.65602815575630      1.71212325128404      0.13646925501798
  H   5.32226413153310      1.31599365754676      0.86868849170808
  H   4.44058893979536     -0.37890340156848     -2.98675414342027
  H   6.73483169433607      0.03377619870480     -3.69401142061639
  H   2.66840276939996      0.01724217643956     -2.31112752267589
  C   -2.22685236139218     -0.83132755688367     -0.94357701475836
  C   -3.51745351756491     -1.58133000803263     -0.63513694811422
  C   -3.40006230415488     -1.87938524600793      0.86022586020122
  C   -1.92339672038742     -2.17349248018520      0.99993749153165
  O   -1.28614326514319     -1.20793155366410      0.11315505689897
  H   -2.34551450105181      0.25092386705999     -0.89786298077026
  H   -1.78780215513974     -1.10623297551695     -1.90032093811621
  H   -3.56347944840945     -2.51082042191755     -1.20136524254297
  H   -4.39438562202917     -0.98927232693132     -0.88360868768040
  H   -4.01941328591480     -2.71511014714851      1.17620230993840
  H   -3.66598588437320     -1.00556196263859      1.45612914108189
  H   -1.67173754712263     -3.17690602458336      0.65394088311156
  H   -1.52392307392928     -2.01256295720204      1.99965135454736
  C   -1.67344754518465     -0.73672832199992      4.67273168721705
  C   -0.55568743670346      0.25547491278062      4.41326928849738
  O   -0.11357185671398      0.19023264355731      3.07783173700212
  H   -2.01939700327961     -0.67017009624471      5.70417055168736
  H   -1.32967793402594     -1.75754633759198      4.49829137010819
  H   -2.52307574128262     -0.53472734702849      4.01781119509552
  H   0.28434607145549      0.04870565884942      5.08251661444788
  H   -0.90285348945299      1.26896485439439      4.63465121479117
  C   -0.92589667117427      3.37808407449569     -0.36812721054192
  O   -0.33797018080325      2.17003196615866      0.04211353029398
  H   -0.56676578553980      3.66633776297093     -1.35882929321860
  H   -0.68796962326604      4.18595630820002      0.32706581114730
  H   -2.01404784529595      3.28660048704866     -0.41610380496643
