4
Coordinates from ORCA-job orca E -4161.082192371558
  Lu  -0.18131066685145     -0.43970852806634      0.39839149061301
  N   -0.66761968685823     -1.16742955724556     -1.95672463808433
  I   -0.70621349285013      2.39125119298688      0.11572604359867
  Br  2.15163384655980      0.03777689232501      0.00600710387266
