26
Coordinates from ORCA-job orca E -2320.171185898751
  Tm  0.23405478818292      0.41788294549428     -0.45158422506181
  C   -0.52271785847010     -0.83164654108816      3.93046073172864
  C   0.26011174502922     -0.72361806369524      2.64249713489566
  C   1.48200180484058     -1.40463057618681      2.53758400623005
  C   2.30778718922121     -1.34986150431938      1.40207612780397
  O   2.03164076545819     -0.74917874298670      0.33535546979826
  C   3.64551584288873     -2.05117707373786      1.43718148156927
  O   -0.25954827741786     -0.01350619048865      1.74373268194069
  H   -0.00286073776215     -1.41062516773578      4.69069580730778
  H   -1.48462475781927     -1.29710277028944      3.71327904133090
  H   -0.72502866252389      0.17216161457295      4.30320906319657
  H   1.82622643671112     -1.96882241876824      3.39141412213105
  H   3.82174313509470     -2.57521403993886      2.37392520549033
  H   4.42901812513380     -1.30908058461193      1.28085911339887
  H   3.69355007305475     -2.75351451116684      0.60532015038206
  O   -1.27674593633731      2.37448681839920      0.03492155081857
  H   -1.79901533082978      2.07274560367166     -0.72608530855198
  H   -0.52210035072614      2.86683531925451     -0.33999146408020
  C   -0.66294918100387     -2.30647117672324     -0.22100093409580
  O   -0.95165721987117     -3.38693751763345     -0.09404041754113
  O   -1.57758336273059     -1.83848480856878     -2.80605654953028
  S   -1.03656534279708     -0.46962945719829     -2.90958551155453
  O   -1.63085258909570      0.34643534985438     -1.68896012935944
  O   0.45809363967686     -0.52469389842009     -2.41608401838611
  O   1.22350324288046      2.26945263867162     -0.73307489691732
  H   1.93070281921223      2.48909475363927     -1.33464823294429
