5
Coordinates from ORCA-job orca E -859.418601521009
  Fm  0.00318500479421     -0.36759411200655      2.00443757935566
  Li  1.94725350669821      0.02913254395530     -0.73228268404283
  Li  1.25973759567978     -2.89169526662582      0.13729656106949
  Li  -0.88686928121336     -1.02555815037333     -0.87338843531198
  H   -1.62881682595885     -0.39132501494957      0.53599697892967
