14
Coordinates from ORCA-job orca E -981.415147772076
  Ce  0.47679353252078      0.42202183468145      0.68408593554633
  C   -0.00046969962512     -0.71757312171603      3.77924806084942
  N   0.26754809625993     -0.23944600557574      2.72446963132269
  N   2.07677978827308     -1.28349291002767     -0.79364709493559
  O   0.81201249039891     -1.31308214532825     -0.79840590945636
  O   2.49972525385093     -0.30447635329108     -0.11228331935306
  C   -2.38255291557044     -1.38857290090764      0.20152433454383
  O   -1.72256835010153     -0.07940257044253      0.09982638933389
  H   -2.62463737706250     -1.73731936216922     -0.79683370425447
  H   -3.26615107164325     -1.28408898722590      0.82222280263374
  H   -1.67378290789738     -2.06243791520902      0.67320641838936
  H   -2.32755278237561      0.57269986365888     -0.27695297918193
  C   -0.35774824573780      3.51650891189034     -0.26776652923694
  N   0.04500418871002      2.44936166166239      0.06640596379907
