35
Coordinates from ORCA-job orca E -1680.425830809396
  Gd  -0.07202868660934      0.30456757053999      1.07714424402957
  C   0.96651193235317     -3.57293224931402     -1.19325685597081
  C   1.22504968900089     -2.17794799365917     -0.69747198939014
  C   2.42616412249576     -1.54415547730556     -1.00826134165631
  C   2.75566013600725     -0.25394206466811     -0.56534987991911
  O   2.00131275818739      0.46024428963606      0.15534850018385
  C   4.07701112462810      0.34982177610174     -0.94674452547986
  O   0.29468969739887     -1.65895140836048      0.00100660811183
  H   1.77465550364773     -3.95104149676609     -1.81305574689589
  H   0.03486369857172     -3.58120534235184     -1.75866155837807
  H   0.83180953827950     -4.23159578412200     -0.33466379532783
  H   3.14355977273165     -2.07573996401932     -1.61324122788178
  H   4.67586189599751     -0.31391519799503     -1.56424729744238
  H   4.62346113088125      0.59931138084186     -0.03745723391411
  H   3.89464732509234      1.28285402230307     -1.47974461019700
  C   0.54761556986327      0.54924528846711      4.45666196435898
  N   0.49640996044362      0.63601371030137      3.29041896470588
  N   -1.63373726139120     -1.26997469220976      2.29972844560268
  H   -1.46943770835756     -1.21891333915488      3.29895120349241
  H   -1.52381745877971     -2.23105688764009      1.99972242604216
  H   -2.58955644942152     -0.99058346234575      2.11054576912299
  C   -4.54320190637133      4.42579442533493     -2.31891033132011
  C   -4.97565626691689      3.11505252355319     -1.86881684803337
  C   -4.15641822178661      2.32157384273600     -1.16849235962797
  C   -2.78776890622812      2.77370861360293     -0.85521947554969
  C   -2.36678386281740      4.12216174949268     -1.28348787840427
  C   -3.21029277594739      4.89036339260257     -1.98335701315371
  C   -1.87330402607334      1.90932861098061     -0.15889680854001
  O   -0.68056971310245      2.30875217951108      0.10012464552094
  O   -2.23585577819658      0.73501531636060      0.20412078708620
  H   -5.21235806463906      5.05360849250860     -2.88579004056188
  H   -5.97874309926092      2.78842727247672     -2.10792046700661
  H   -4.45396321219827      1.34342539423871     -0.82269059160928
  H   -1.37166204322135      4.44536665437655     -1.01849920789244
  H   -2.90712841426081      5.87691885394553     -2.30703647410478
