61
Coordinates from ORCA-job orca E -2249.428478885491
  Ho  -0.34906011310121      0.02456377262127      0.06711856794549
  N   0.16372196169799      0.71093274678622      2.30575049510426
  C   -0.78931849496771      1.20347302853163      3.11611100059256
  C   -0.55193060663842      1.56268786821005      4.42649679283411
  C   0.73291894777479      1.40320161346383      4.92321710560969
  C   1.72533556686508      0.90051032596797      4.09411922959833
  C   1.41722162314980      0.56259412217204      2.78625107614461
  C   2.42954626370698      0.03352798815754      1.82869823789232
  C   3.75806048355138     -0.14702400443353      2.17437509509135
  C   4.65098028136878     -0.63523038350002      1.23057013326536
  C   4.19396479081422     -0.93534798325694     -0.04252477711855
  C   2.85668165491610     -0.73338620750181     -0.31791501860740
  N   1.98302509033727     -0.26009372252970      0.58665996356368
  H   -1.77909679712667      1.31587466781388      2.68652880634203
  H   -1.35050890882100      1.95625227500664      5.03801754896056
  H   0.96463775097552      1.67045842904404      5.94524790196981
  H   2.72595951172193      0.78096551321221      4.47817025882597
  H   4.11186100239973      0.08893541092006      3.16550141587762
  H   5.69107132149981     -0.77689943970839      1.49087990422528
  H   4.85549971461246     -1.31629223321213     -0.80662088434013
  H   2.46022328654053     -0.96043462183535     -1.30029507113444
  C   -2.49967033439704      3.87883941119810     -0.51070677147371
  C   -1.32714098420018      3.16669619173630     -1.12914109753875
  O   -0.64046572719357      2.31532010961931     -0.12862543514069
  H   -2.99032023289472      4.48818324197390     -1.26924760120549
  H   -2.18093941901647      4.55309825155654      0.28508124857767
  H   -3.23136323829167      3.17589491077010     -0.11279058902939
  H   -0.58400160225389      3.85518925410186     -1.52623203678021
  H   -1.62150673004112      2.48149212337882     -1.92154597644411
  H   -0.38076164751803      2.88195512689594      0.60840924471199
  C   -0.10020163055897     -4.45212098294546      1.30884507770864
  C   0.47816894719437     -3.37913056910448      0.42727967714749
  O   -0.50504242191217     -2.27721801292005      0.24178167470466
  H   0.63067513592949     -5.25159345741487      1.42555362228438
  H   -0.99045930044755     -4.89887986818291      0.86242845849546
  H   -0.34163705218538     -4.07052281556790      2.29990396266000
  H   0.73046006765507     -3.74749938879963     -0.56501475777978
  H   1.34844758533881     -2.90417486352471      0.87146663252021
  H   -1.37663796616802     -2.68813496200186      0.17945317160519
  C   0.62644641029142      0.11062692814376     -5.01305915391402
  C   -0.18322385661459     -0.87086355069903     -4.45709876143076
  C   -0.41780769065198     -0.84279205766240     -3.09802658617895
  N   0.10114976748055      0.09897391129397     -2.28505040410865
  C   0.88617729268782      1.04586420281676     -2.83735952735863
  C   1.17133389838323      1.08511273867444     -4.18581174390406
  H   0.83114874525792      0.11582068662191     -6.07508898562945
  H   -0.62419222400209     -1.64690271190224     -5.06556494829475
  H   -1.04033615492358     -1.60050655988346     -2.63448467588635
  H   1.29566129786159      1.79071076390398     -2.16482611014745
  H   1.80781361598860      1.86399649352931     -4.58004177729976
  C   -5.49125462678589     -0.62141416556605      0.47416014633862
  C   -4.91415011099493     -0.02834299100084     -0.64059738855135
  C   -3.54136752118959      0.10510362389379     -0.68200957411421
  N   -2.73290750226844     -0.31617313388465      0.30924596195265
  C   -3.30610359239697     -0.89297176238168      1.38429166713015
  C   -4.67000536690735     -1.06151302769054      1.50461900565230
  H   -6.56419724030723     -0.74161537334796      0.53810720000618
  H   -5.51703146820655      0.32226433183326     -1.46563657105841
  H   -3.06398139850712      0.55900903630718     -1.54485760292332
  H   -2.63866467720777     -1.22970507038997      2.17012703936790
  H   -5.07980537730333     -1.53034517930809      2.38750650268623
