33
Coordinates from ORCA-job orca E -1553.904043655360
  Ce  0.34695730886450      0.49695487115762     -0.22065264825654
  N   -0.24174942197568     -1.82914661509721      0.57169139569504
  C   -0.12644283356382     -1.95087530692239      2.05444318470578
  C   1.16538231410308     -1.31189853170569      2.51315976605032
  N   1.15607902106253      0.13924098306957      2.16735791717080
  H   -1.16741560603790     -2.13779917661456      0.28322441136479
  H   0.41081027403073     -2.48056193091637      0.13732443763330
  H   -0.16000041944608     -2.99462895031654      2.36364225537586
  H   -0.98485943179810     -1.44523434790445      2.49738979739140
  H   2.01817910369728     -1.76697313381705      2.00978277724655
  H   1.29665282645976     -1.45608277500378      3.58461228916649
  H   2.09474513022530      0.50921783652461      2.30330568224349
  H   0.56156510598419      0.63349571062983      2.82892262798424
  S   -3.74144426486534      2.13625199007997      1.87936668661572
  C   -2.45557874222543      1.62561628151473      1.20958904562177
  N   -1.43152001041803      1.21652159407743      0.67466860948266
  N   1.50138786819692      2.78590677009755     -0.28631042030529
  H   1.24665037579768      3.42487642851302      0.46453353416662
  H   1.34915284250463      3.31310602397336     -1.14524364932516
  H   2.51225682543563      2.65542214791938     -0.22412746626597
  C   -1.43761498258162     -0.42364125328924     -5.02243543582738
  C   -0.12928134508254     -0.74098170355313     -4.68385043032015
  C   0.30249376929152     -0.49475087628241     -3.39823422425353
  N   -0.50478534959418      0.04419295852326     -2.46030965471857
  C   -1.77505705946971      0.35074063318760     -2.79706793780222
  C   -2.27381096263236      0.13139454216383     -4.06215909099356
  H   -1.80219326552496     -0.60583737655598     -6.02394010425069
  H   0.55009271002087     -1.17256123149105     -5.40371942852834
  H   1.31539264595228     -0.72901423207792     -3.09466660336299
  H   -2.39365112903139      0.78408119836831     -2.02079978326331
  H   -3.29677775300526      0.39208101505288     -4.28927669814529
  C   3.31927872452904      0.18253945358283     -0.34402944046868
  N   2.37230573109651     -0.46085299688801     -0.63579140182704
