23
Coordinates from ORCA-job orca E -3163.404773507822
  Tm  0.14490808664962     -0.19987034987395      0.08114747955172
  C   -1.26021790384376      3.63788998091718      4.95675730343463
  C   -0.93730246257857      2.60960524717027      5.83496392711824
  C   -0.41985176094905      1.42067403854275      5.34392992051799
  C   -0.22436415366548      1.24219151266991      3.97766501110960
  C   -0.54646956718123      2.27223848997728      3.10061323636062
  C   -1.06099059487784      3.46554170409001      3.59430923455837
  C   0.34572848021715     -0.08540248618835      3.48918267894730
  O   0.69898789332520     -0.90876626314880      4.32486903199032
  O   0.41087138078551     -0.22482094227459      2.21883948057237
  H   -1.66545096081340      4.56976701744958      5.33493324688372
  H   -1.09006784784212      2.73667394048030      6.90084068505244
  H   -0.15416129952054      0.60245411008666      5.99993980086483
  H   -0.38783997184577      2.15639262235109      2.03527774834551
  H   -1.30706329674368      4.26046793909407      2.90132383004598
  O   1.33376810283265      2.59370939904133     -2.15943812665575
  S   1.47975451687965      2.25689482678569     -0.72641162680431
  O   1.98981179256829      0.77456368308830     -0.64173155956442
  O   0.03222243563530      2.00732541365016     -0.15834143535977
  Cl  0.82038603727143     -2.57044147205988     -0.75069546481744
  Cl  -2.44086066804610     -0.47763015689714     -0.01876163212507
  C   -0.30897217942131      0.08598869699761     -2.56361049406513
  O   -0.53422605883583      0.17435304804999     -3.66250227596196
