42
Coordinates from ORCA-job orca E -1774.274074630177
  Ce         -0.26548392630574      0.24390764988313     -0.33121587087926
  N           0.49847409077737     -2.02284634206519      0.74594109562350
  C           0.87149792951626     -2.96645364342707     -0.33456385986189
  C          -0.31004661098695     -3.14840671025771     -1.27119113579795
  N          -0.77101529884103     -1.85971229518297     -1.87153677919422
  C          -0.35092845886086     -1.63891524917890     -3.28322818180330
  C           0.95971448171596     -0.87813690307774     -3.37104793072189
  N           0.79985079671434      0.44523104534815     -2.72384197283101
  H           1.29782270114978     -1.85922366328435      1.35351584559727
  H          -0.23526905675330     -2.43690309138458      1.31800937400605
  H           1.17107944900956     -3.94753636327635      0.06047496767631
  H           1.73988339820140     -2.54817119480326     -0.85695543784151
  H          -1.14976325948475     -3.57192146988159     -0.70665592583910
  H          -0.05139329226992     -3.87266580538629     -2.05499911200828
  H          -1.78775507499818     -1.87799048846871     -1.85815830368842
  H          -1.13858973884634     -1.05713120598366     -3.77907742360043
  H          -0.26835627500224     -2.59151217292285     -3.82454188508893
  H           1.25760350437114     -0.78775261011140     -4.42507435711752
  H           1.76459859848776     -1.41247288279392     -2.85278032773780
  H           0.18231352318115      1.03130279813477     -3.28203827602253
  H           1.69976586490255      0.91566514005163     -2.66626779431903
  N          -1.94172449269706      0.96985656777942     -1.63846702293150
  N          -2.96847926455719      0.57477461364947     -2.14152236444471
  N          -3.93256746024372      0.20354431039915     -2.62827712615073
  C           0.73124344318042      3.36663826311947      1.09091256101092
  C           0.06154880819920      4.69661196858663      1.37740446665576
  C          -1.40028099877524      4.28971397552009      1.57361627654268
  C          -1.59742145307724      3.25779451963732      0.48004191177051
  O          -0.28341112148877      2.58381808040377      0.34585948618181
  H           0.96652831269991      2.81450144007891      2.00747060039127
  H           1.62000815500126      3.42628214447959      0.46080493496077
  H           0.16415652677654      5.37328790669223      0.52192937849421
  H           0.49322473749335      5.18164252801611      2.25637583973887
  H          -2.09707205455532      5.12505944803017      1.46711652991542
  H          -1.54809684795204      3.83653828810485      2.55991383543186
  H          -1.82719332182172      3.70555159146667     -0.49270423250524
  H          -2.34310863112016      2.49661241061291      0.71988685246769
  I           2.73368075203060      0.45647159785374      0.13362988093681
  N          -2.26850762849067     -0.54918463171557      1.60854425990788
  O          -3.08725674801988     -0.83362515753758      2.42971092246725
  O          -1.33130058073991      0.32431387221119      1.82461677136509
  O          -2.22438347752020     -1.07534827931970      0.43503952924341
