6
Coordinates from ORCA-job orca E -3636.122452480087
  Es  1.72928482993907      0.46549650859485      0.28811025497880
  H   0.38294967620064      1.38633319703053      1.65070045562757
  Li  -1.13129624052116     -0.02839258022374     -3.98436906337523
  Sb  -0.73115112247957      0.09216268710945     -1.42913430752124
  Br  1.08644166383469     -1.80437893274051      1.79255804437565
  Sr  -1.33621880697367     -0.11122087977058      1.68214461591444
