28
Coordinates from ORCA-job orca E -2122.305969861723
  Gd  -0.47584758292619      0.62460284426852      0.76519119204419
  C   4.04436347834209     -0.09744449197151     -0.96324125160675
  P   2.88989976418489     -0.36695981598132      0.37134617456913
  O   1.46332292774105     -0.04702579325804     -0.09488359648516
  C   3.35528091208146      0.67059479674460      1.74948069011298
  C   3.00216075697125     -2.06968913842782      0.89816894607772
  H   3.77589047853218     -0.72851657209628     -1.80914463571173
  H   5.05775419883184     -0.33706698038228     -0.64305236769144
  H   4.00310482038080      0.94648760969932     -1.27095863496494
  H   4.38283840106898      0.46707150975949      2.04947608867364
  H   2.69270149124027      0.46924129786635      2.59230564106160
  H   3.26183155007168      1.71905994663298      1.46798103291040
  H   4.01064717786194     -2.29942663655358      1.24056026236789
  H   2.74722674291332     -2.72770961379047      0.06853895913450
  H   2.30024695757216     -2.23175876634427      1.71655299881971
  Cl  -0.35799358848092     -0.59829154721084      2.92167610452220
  N   -0.40441645705046      3.36404010214856      1.38836134913099
  O   0.60546879358540      2.62417350707082      1.36300237523874
  O   -1.46948101373492      2.78455804995274      1.11416983883394
  C   -1.84553854186749     -2.00591686683101     -0.58185735878522
  C   -3.00123381208755     -1.06429139361814     -0.81874409984513
  O   -2.56945445652103      0.25900569014893     -0.39225788263850
  H   -2.10802637172328     -3.01076717584334     -0.90641692430669
  H   -1.59851936790076     -2.07485794162808      0.48191530818085
  H   -0.96567064299200     -1.70605595438692     -1.15902903655296
  H   -3.87286597542650     -1.35028998650703     -0.23322341085988
  H   -3.27015455196227     -1.01666746578808     -1.87216793838250
  H   -3.28263608870610      0.89910078632673     -0.48454982384763
