33
Coordinates from ORCA-job orca E -2304.392367947274
  Gd  0.03883579363899      0.01471089504946     -0.64401078439624
  C   4.04116576987448     -0.98958615926641     -1.53773941185919
  C   2.86154226586577     -0.32471087754775     -2.05675669556353
  N   1.91004863904603      0.19301862277266     -2.44080048997723
  H   4.79166236595956     -1.09091892049737     -2.31807866644185
  H   3.73438389957676     -1.96635249254741     -1.16754141835561
  H   4.42259334582568     -0.40383171662260     -0.70453276620445
  C   0.51517844611024      2.76829675836152      1.47391968352987
  O   -0.04201697777431      2.29468763366159      0.23646139087969
  H   -0.13640443641814      2.50888453945034      2.30677808279103
  H   0.66202351586251      3.84632586495859      1.42600743784256
  H   1.46495303264658      2.25925407724077      1.59596599084101
  H   -0.93640693977350      2.62926120750574      0.11122980264378
  N   -2.35179869759323      0.84119532233299     -2.18532665340559
  O   -2.18168957721680      1.12449031890501     -0.96559800860773
  O   -1.40329915033197      0.20546953811735     -2.68126001560523
  O   0.11506212903946     -0.64339476389177      1.62299560528098
  S   1.54805274984209     -1.12215813702588      1.29449454093299
  O   2.18651352666541      0.14966070678871      0.75225254476278
  O   1.30420877697846     -1.92826613217936      0.00122811765922
  C   -3.36717609103306     -2.36716524250854     -1.51246318881854
  P   -2.08908239133560     -2.01701371324898     -0.25883027671005
  C   -3.07552939607180     -1.51181918505494      1.18829949803210
  C   -1.49881440979628     -3.67268300588771      0.21516730712383
  H   -4.10862206055105     -3.07361471781048     -1.13700326663340
  H   -2.90007253853545     -2.77622577534190     -2.40752379028233
  H   -3.86454091666566     -1.43859718697530     -1.79072938440505
  H   -3.81875946523023     -2.26763351515022      1.44609904061687
  H   -3.57825844303959     -0.57104842869632      0.96511914492862
  H   -2.40194564496626     -1.35487857782871      2.02990097409932
  H   -2.32570704633332     -4.32150888005695      0.50703212362951
  H   -0.80006775516020     -3.56586362453168      1.04296906090322
  H   -0.95843231910536     -4.12158443247423     -0.61712552923124
