31
Coordinates from ORCA-job orca E -1917.825019177710
  Ho  -0.48431623107346      0.66447673665861      0.64573743450394
  N   0.56414844986457      1.78235949790573      2.56046270549748
  C   2.01439771125754      1.40837243974450      2.63855407431675
  C   2.58646515686086      1.26224228595529      1.24396820572699
  N   1.87055245723373      0.16633512196364      0.51311446010153
  H   0.50533007238905      2.78069464327833      2.35405913327397
  H   0.15887811854155      1.69683617576702      3.48984964001655
  H   2.08779367044581      0.46673134508564      3.18384889196949
  H   2.57647247565945      2.15469484304526      3.19715431655784
  H   3.65470639794122      1.05948770215990      1.29534438178478
  H   2.45383163965250      2.18237194725775      0.67258187171088
  H   2.19839100855062     -0.73143921309604      0.86520908832165
  H   2.16531424461247      0.19140625176587     -0.46310443449883
  C   0.08643515472110      2.04614535578830     -1.52615292944619
  N   -0.55416766549241      2.44695172731851     -0.62376663773927
  C   -3.22484410641497     -0.46586125534410      2.59489774251884
  O   -2.28424736687282     -0.53190002851590      1.47014476928573
  P   -2.73627935327844     -1.61684592628651      0.22462758094346
  O   -1.31648510327092     -1.09931875095917     -0.55528538543696
  C   -1.13803546493840     -1.55094364479901     -1.94421240169229
  O   -3.78448360876134     -0.71263649124469     -0.52661213575806
  C   -5.06096178960822     -1.23428926966381     -1.03000851963851
  H   -4.08061959544839      0.13685081293966      2.30600053372840
  H   -2.70275532656826     -0.01508377790200      3.43204812982663
  H   -3.53059774363810     -1.47526546452664      2.86151653832099
  H   -1.19067554985416     -2.63630380034028     -1.97057276094813
  H   -0.15914461290716     -1.21261578473330     -2.26594816545586
  H   -1.90704709705250     -1.09682593813579     -2.56169993587310
  H   -5.84977892062991     -0.66378946019633     -0.55386008403179
  H   -5.15699493252331     -2.29254858902625     -0.79651034884884
  H   -5.07018208939754     -1.07638949186418     -2.10228575903819
