45
Coordinates from ORCA-job orca E -2614.983338811647
  Ce  0.24059452059547     -0.59418823690963      0.45754835880994
  C   -2.29590738192230      5.20698592892637      2.76172250043250
  C   -3.16004322677316      5.09533069947198      1.67794175047716
  C   -3.26538461805255      3.89393783570281      1.00455753405938
  C   -2.49891816651473      2.79965365211244      1.41533886391371
  C   -1.62350434683713      2.91902414019378      2.49494544075993
  C   -1.53070450158023      4.12338176668852      3.16955958088137
  C   -2.56568044969891      1.51545165590993      0.71252806383937
  O   -1.70144248950286      0.63630478021234      0.84157159435778
  O   -3.56285463634390      1.23974644847457     -0.09342249491338
  H   -2.21828587184504      6.14846586070309      3.28772491591426
  H   -3.74228809256277      5.94664543101996      1.35640356086082
  H   -3.91435733959865      3.84289518277155      0.13771751807197
  H   -1.02540053813746      2.07608530484391      2.80985915522860
  H   -0.85926444495661      4.21279558256585      4.01148262931231
  H   -4.22571756250487      1.94159217685877     -0.09023356205562
  N   -1.21522486280082     -1.98474394837474      2.00068810073749
  H   -1.61662726224182     -1.43625166890212      2.75472697751212
  H   -0.66627589339424     -2.72607951612263      2.42470927220642
  H   -1.97989340812911     -2.42822777140839      1.49919526350172
  S   3.31700518097698     -4.19150804474034     -0.31734465811441
  C   2.11500818533549     -3.27233072511580      0.08473048506025
  N   1.19781122922963     -2.55886521217936      0.39238533712200
  N   -1.00215216567547     -0.76919596770088     -2.12805273572572
  O   -1.28259525790814     -1.55044220394560     -1.20790713913552
  O   -0.07193837351723      0.04400200199841     -1.79479003321426
  F   0.19477545051064      4.44905905785079     -0.35579515122520
  P   0.35796488562978      3.17528826716547     -1.24845514952256
  F   -1.17202003621906      2.89554008942514     -1.49355508893185
  F   0.52670222039849      2.13613915363543     -0.02028602116371
  C   3.03126959062358     -0.10390800019229     -1.44381027880352
  C   4.49894253687979      0.22396283900310     -1.27563239489108
  C   4.80565591234986     -0.36948767626034      0.09790853229354
  C   3.56512744504849     -0.02251907897808      0.89833400582916
  O   2.47436289540893      0.02128153608745     -0.09288082451175
  H   2.87983249856811     -1.13219042424796     -1.77697656679880
  H   2.48066724499569      0.57510013448187     -2.08912533052882
  H   4.65043444915030      1.30355779613201     -1.27573935461922
  H   5.09977479045582     -0.21002201504705     -2.07097893200162
  H   5.70101457753909      0.04649305637324      0.55302019354922
  H   4.92282865049858     -1.45057514780344      0.02764115279979
  H   3.61014924359724      0.96225451539007      1.35872539125913
  H   3.30469863213195     -0.76083972097242      1.65313653804459
  C   0.85566037535562      0.25019439702531      2.67852656580466
  N   0.97970041143727      0.73160606787608      3.72345643351725
