50
Coordinates from ORCA-job orca E -4371.591006422978
  Nd  -0.06091236853146      0.10799873052011     -0.02549117864831
  N   0.19701772298879     -0.12526445593070     -2.57447283371001
  C   -0.01317131469096      0.93632787081843     -3.36179484906850
  C   -0.09760491414273      0.85350222024847     -4.73841620600985
  C   0.02313969312778     -0.39557682193000     -5.32429423914917
  C   0.24676259468929     -1.50230459930932     -4.51911504342964
  C   0.34528630159207     -1.33500810016402     -3.14678175282843
  C   0.62905653222511     -2.47729007654553     -2.23541533015361
  C   1.21740387394932     -3.64615112421590     -2.68317499911726
  C   1.46056906737324     -4.67623815116042     -1.78294699654843
  C   1.12344765731787     -4.51029838853657     -0.45036797136258
  C   0.55345720705241     -3.31387468489080     -0.06267144600514
  N   0.32200113538243     -2.31285426342126     -0.92969285381862
  H   -0.11608817987532      1.89588111089231     -2.86626512348019
  H   -0.26192450015859      1.74265832125294     -5.32862934367644
  H   -0.05584054893182     -0.51120024428695     -6.39623669975918
  H   0.32650170683984     -2.48355092102850     -4.96134341602505
  H   1.50379514046512     -3.75566248664747     -3.71787147937882
  H   1.91321780439571     -5.59660522424912     -2.12507886354453
  H   1.29507487721082     -5.28766903290587      0.27896908551743
  H   0.27647708307860     -3.12496676354216      0.96604423223413
  C   -3.02126584001624      3.82511993181230      0.44857763791724
  C   -2.01542025785608      2.87281220443269      0.55195993433255
  N   -1.90532362777482      1.88885408415987     -0.34907919123252
  C   -2.80969159485292      1.86391795285863     -1.33803119357046
  C   -3.80632178036097      2.82016071069220     -1.42237350873842
  N   -3.91149288799497      3.80179965039490     -0.53303226865950
  H   -3.10391625259310      4.61928271076034      1.17873465468381
  H   -1.30023222757026      2.89085342912811      1.36433298748361
  H   -2.73918411765722      1.06630414151896     -2.06714566994769
  H   -4.53463466980156      2.79199227485873     -2.22217933925020
  Br  -2.33476767718669     -1.85232335909223     -0.59546532058749
  N   2.48858415182458      0.55963325001963     -0.13978963261608
  H   2.71384919032162      1.47024377518980      0.25429033191661
  H   2.97664079087147      0.50563318348310     -1.02897251414995
  H   2.94602136517860     -0.11220225108073      0.47316696970546
  C   0.95091763347494      0.10738901588728      6.83136076109101
  C   0.85032020540021      1.31958903057251      6.15851028793049
  C   0.69685928833143      1.33211083402017      4.78493131196640
  C   0.64620694545344      0.12446673036582      4.08651006690125
  C   0.75021009620221     -1.09158046815961      4.76392443564295
  C   0.90144121389872     -1.09628960322788      6.13778708606957
  C   0.47601373624219      0.13520832344825      2.63749828868706
  O   0.45379195044052     -0.95978490335460      1.95729377544867
  O   0.33555776827445      1.23240658415430      1.98650715797446
  H   1.06916002896278      0.10061177841239      7.90614025476821
  H   0.89162814395381      2.24878883230122      6.70834100639746
  H   0.61769103867613      2.26542988001117      4.24613296354245
  H   0.70731796070232     -2.01803935673285      4.20962996361975
  H   0.97987285409792     -2.03214128180206      6.67208607063545
