33
Coordinates from ORCA-job orca E -2946.149063273510
  Gd  -0.18470192553735      0.33679857956257      0.59571488280764
  N   2.58714138726525      2.51670911373746      0.85442230519798
  O   3.39024733568547      3.02604587901726      1.62613413574749
  O   1.51880681026400      2.01088047448111      1.29948744259460
  O   2.80372980487340      2.50419152913203     -0.37942157574495
  C   -0.09929549709425      2.86512297955322     -1.77545769201118
  O   0.52555122013277      1.61352010662000     -1.52678278456872
  H   0.22230659257551      3.26859211014045     -2.74284044829232
  H   0.13980760226924      3.58613532394387     -0.99063437659850
  H   -1.17412338262360      2.70980128642801     -1.76656113309566
  H   1.44155591978651      1.80452754511273     -1.22965381399053
  O   -1.97803022720106      0.35266820800114      2.09245688344901
  S   -2.98259608514385      1.29288637350947      1.33507073283877
  O   -3.28937096379336      2.44634439975586      2.20321391254462
  O   -2.05589190985419      1.76097004157333      0.18012742261310
  C   -4.06435852438614     -2.14337016664003     -0.07968612714831
  P   -2.29155645827801     -2.44305487851796      0.09099463368282
  O   -1.53626132997386     -1.29152358961887     -0.49974826528776
  C   -1.90546891868580     -3.96509671862322     -0.78725103730867
  C   -2.03191575543772     -2.78927083200009      1.82598565028111
  H   -4.26866306718561     -1.19509604501467      0.42387854945257
  H   -4.65836875239900     -2.94481582343202      0.36164663329947
  H   -4.30986185715939     -2.03568349587744     -1.13626638985833
  H   -2.47126311255766     -4.81059306423358     -0.39270105385704
  H   -0.83265404659057     -4.11130809851722     -0.63669604474631
  H   -2.11878212805028     -3.83390284719787     -1.84806110731040
  H   -2.70609154789226     -3.59177700521909      2.13582771846764
  H   -2.22592776177738     -1.87034856306251      2.38253131290089
  H   -0.98856553718707     -3.07155311672035      1.95976712740042
  O   0.92116650188289     -3.31117744235382      0.50079080023814
  S   1.62913747261318     -2.05523611686825      0.89414308965701
  O   1.55369347719484     -1.05235948272380     -0.27455167063885
  O   0.71660466426554     -1.33062666394768      1.93642028728426
