35
Coordinates from ORCA-job orca E -1418.948361156859
  La  -0.42784916674715     -0.06750075995317     -0.71878884382275
  C   -1.21182186480414      6.67031701608031      1.05868473826340
  C   -1.04464716964073      5.72246080853295      2.06087966929819
  C   -0.90051156874061      4.38767862113381      1.72809520270464
  C   -0.92399968858756      4.00708617210997      0.38758277498748
  C   -1.08866266479511      4.95804267795860     -0.61768855344906
  C   -1.23410746286298      6.29112482111480     -0.27760433378645
  C   -0.76570537767849      2.59136471391338      0.03326483855419
  O   -0.74855352348194      2.22670276058816     -1.19981447058795
  O   -0.64161104772075      1.69577261742772      0.93607587044923
  H   -1.32287810896732      7.71347560650539      1.32136856540454
  H   -1.02361571153516      6.02777863698121      3.09735360464518
  H   -0.76208092143443      3.63578839728150      2.49172050203075
  H   -1.09876415997809      4.64346277641943     -1.65129094932319
  H   -1.36198322213852      7.03581365023850     -1.05022796329765
  N   1.89513720357047     -1.46070647035612     -1.78880717580638
  O   2.83404569493252     -2.05354868079456     -2.18804901219076
  O   1.78056803976899     -1.08387765241086     -0.55708917045432
  O   0.89748614663879     -1.13808046842895     -2.53388691266499
  C   -3.49534047125790     -4.48922296832470      0.61592153520220
  O   -2.66661886949215     -3.35686753389048      0.25552092819531
  P   -3.29616190760422     -2.05465126129718     -0.41928661293178
  O   -2.13965438832508     -1.77612837534593     -1.59372579488271
  C   -2.13370348772886     -2.66845010506790     -2.74333198462218
  O   -2.54646474243034     -0.86635086221796      0.48142619487971
  C   -3.16913466860402     -0.46578197217651      1.73382515640524
  H   -3.12113328554262     -5.35876135543708      0.08540130173786
  H   -4.53585746308978     -4.30934494199154      0.34883783911827
  H   -3.40750209645231     -4.64103194524438      1.68679670015741
  H   -1.33158957855449     -2.33931715617410     -3.39515395222063
  H   -3.08995819250433     -2.60389193656130     -3.25737163641631
  H   -1.93991262003788     -3.68489890098195     -2.41000317817190
  H   -2.67878361958505      0.45079793712800      2.04508448152013
  H   -3.01991236643930     -1.24627069278849      2.47555850877051
  H   -4.22981766814918     -0.28608317397065      1.57222213230472
