4
Coordinates from ORCA-job orca E -3368.234447652883
  U   0.26961129904412     -0.00100016306102     -1.56660193804145
  Cl  -0.91134156076522     -2.27589939422266     -1.58326705526376
  Sr  -0.48943995882251      2.47617343645935      1.14409970204737
  Se  1.72766022054360      0.62261612082433      0.56916929125784
