38
Coordinates from ORCA-job orca E -2528.898316172826
  Tm  0.08396487584170     -0.31133634465305     -0.40191597011437
  C   2.16103991047407      0.87349608735671      0.82989085544505
  O   2.97968378482266      1.33505987550596      1.43288441385174
  C   -3.81481929554804      5.24397039456479     -2.00012737465448
  C   -3.70365123367620      3.92680711073391     -2.42626454816294
  C   -2.63710494506847      3.15464639566260     -2.00607247233154
  C   -1.67950647148656      3.70085098814544     -1.15093463259476
  C   -1.79131511762822      5.02861159710113     -0.73270101039376
  C   -2.85860650568162      5.79671403654536     -1.15744797909838
  C   -0.57808456884459      2.84279577172575     -0.71028317929586
  O   -0.36830731204832      1.71996728866241     -1.19401627627487
  O   0.24679719581198      3.23753436093843      0.23283849868133
  H   -4.64949914890590      5.84699891046181     -2.32974713193711
  H   -4.44843283002866      3.50626704938063     -3.08649530824416
  H   -2.53642800566497      2.12933000458276     -2.33087673867022
  H   -1.04722370135384      5.49606786543280     -0.09848269080715
  H   -2.94349423351821      6.82510414318722     -0.83788977876548
  H   -0.03606978446912      4.06365736126256      0.64428222911385
  C   -0.95500556134008      0.38959666746786      1.60846181078975
  N   -1.76243165928752      0.73515522398907      2.36209453708840
  C   -1.94523074082088     -3.10257528033917      1.43371912103819
  P   -2.65397748670934     -2.38288796475557     -0.03801627186781
  O   -1.61173575976690     -1.53091611408384     -0.78505294607368
  C   -3.21667110901123     -3.69592785698130     -1.10849070597676
  C   -4.04769078192222     -1.37885034229382      0.44012526253272
  H   -1.69169810948718     -2.30552261738257      2.13323876185188
  H   -1.04302127320684     -3.65653757616164      1.17456227460087
  H   -2.66026362220625     -3.77737666651151      1.90390298828752
  H   -3.96796574202558     -4.30035505112460     -0.60154002156927
  H   -2.37284436200591     -4.32796185913500     -1.38229239366143
  H   -3.64817591048630     -3.26885871027114     -2.01260533122685
  H   -4.78939073700648     -1.98751348710188      0.95692428398860
  H   -4.50062820496843     -0.93717906388663     -0.44670086879565
  H   -3.69731955999334     -0.59023475864815      1.10742972954082
  N   2.00520168823707     -2.21520813584745     -0.59540649044781
  O   1.27352548346933     -2.06424173075270      0.45387420209789
  O   1.76841580251367     -1.34582952819197     -1.51943929248853
  O   2.81486503299721     -3.06741804458533     -0.70412955545561
