38
Coordinates from ORCA-job orca E -1624.011235488234
  Gd  -0.21570021830684      1.59701599057519      0.94470909220223
  N   1.68205043911892      0.37410577718723      0.45449499206765
  C   2.21724332902475      0.32242962417967     -0.78179643415645
  C   3.37973128798970     -0.36305862185821     -1.05952132658796
  C   4.01475572292356     -1.01982592356086     -0.01580477265613
  C   3.46780169009275     -0.97286794618155      1.26214073791731
  C   2.29795489632648     -0.27106204157717      1.47951081309025
  C   1.63997436148800     -0.17685481253586      2.81297743637528
  C   2.13600015931148     -0.79233703669451      3.94586994519368
  C   1.45728607075016     -0.66219747135905      5.15291907054621
  C   0.28773990576011      0.08172578558317      5.20710969128144
  C   -0.15839957207207      0.67276930512308      4.04539909063156
  N   0.49595348513752      0.55383212071094      2.87266474939349
  H   1.69102884315642      0.84835628421414     -1.57198445389346
  H   3.77437998443325     -0.37900357106237     -2.06510582278413
  H   4.93131007175735     -1.56775140939980     -0.19008736990565
  H   3.96560589360327     -1.48619930784408      2.07008319425806
  H   3.04343680955750     -1.37479417637521      3.90894591518973
  H   1.84307364419581     -1.14188380673900      6.04273829566168
  H   -0.26689666404672      0.20251973642840      6.12633124698524
  H   -1.07066873588608      1.26060022440475      4.04596391023847
  C   -4.24304950391481     -1.05512053290623     -0.67182319250712
  C   -4.33266728254989      0.33242887657760     -0.66697236097064
  C   -3.25191795101434      1.06454954228997     -0.23069438507636
  N   -2.10780823070444      0.48153447424713      0.19350284796485
  C   -2.03196028600884     -0.86937486956146      0.18616327510157
  C   -3.07151285498027     -1.66540915832391     -0.23692451384960
  H   -5.07756166876281     -1.65466747937872     -1.01056773483426
  H   -5.22797307814530      0.83922698899876     -0.99709984238413
  H   -3.29354456505910      2.14775416507982     -0.21536804057093
  H   -1.10355762980994     -1.31479888948853      0.53280196815165
  H   -2.96808028099365     -2.74069036848946     -0.22695940272396
  C   -0.71311173649145      4.97947909113666      0.47575437573173
  O   0.11692504465492      3.87817208867627      1.03385923077158
  H   -0.11093953451756      5.54134705732327     -0.23040411738764
  H   -1.06003583334830      5.60025409828689      1.29497198166919
  H   -1.55405554211983      4.51603727508034     -0.03276454431560
  H   0.87988952945030      4.28585891723266      1.46776645418107
