5
Coordinates from ORCA-job orca E -11077.457694864797
  Es  0.17322163685666     -0.62277236520908      0.43358087772317
  Br  2.22534881976328      0.94191091870536      0.19512040866226
  Br  0.65305217876806     -3.31614506725765      0.19998256565673
  Br  -0.72862539788604     -1.75114097682390     -1.90748275437294
  Br  -1.62850723750195      0.10110749058527      2.15085890233078
