27
Coordinates from ORCA-job orca E -2210.206820876909
  Tb  0.62092196691126     -0.09293144816564      0.37975403657315
  O   2.52138455711273     -0.74752827040205      1.77535473033800
  S   3.24679054015776      0.36155554710636      0.98359344959793
  O   2.19470407973813      1.50164731783810      1.06683166552004
  O   3.07080703178699     -0.11712711330158     -0.46441186724230
  O   0.07874814438282      0.14145392642473     -1.69704169413201
  H   0.79091482088336      0.10626402435782     -2.33781959408540
  C   -3.49901397687148      2.72791239360958      0.64641397914915
  P   -2.20817757562318      1.82508289704056     -0.22989016217929
  O   -1.07102036341657      1.52816931043227      0.70639014555470
  C   -2.98742003344538      0.37877000004676     -0.93798572436173
  C   -1.68450452620891      2.85072027285639     -1.60610056629546
  H   -4.32652898271973      2.97943185224677     -0.01671537838497
  H   -3.07428652129419      3.63905794207917      1.06573134791404
  H   -3.86121866964963      2.10111746786171      1.46054323310069
  H   -3.86133634955415      0.66626251723752     -1.52436392271900
  H   -3.26374349630020     -0.30736649691854     -0.13678680703637
  H   -2.24191949964861     -0.10379549358166     -1.57275303363167
  H   -2.51683354530543      3.08790215327163     -2.26913811622803
  H   -0.92801449065252      2.26466649245727     -2.13134200089764
  H   -1.23716066677302      3.76739900316598     -1.22368570331040
  N   1.36432196371618     -2.47016089502332     -0.18414520423520
  H   2.28342935582587     -2.17467280032763     -0.50459382482751
  H   0.90713670572482     -3.06106922814201     -0.86302576466539
  H   1.48101954482504     -2.96732651094114      0.68874856690353
  C   -1.32432935196074     -1.49808675924463      1.36798451647936
  N   -2.32087066164116     -2.02654810198449      1.64455369310179
