4
Coordinates from ORCA-job orca E -581.067958669063
  U   0.53789259923048     -0.44565028030862      0.85610007192746
  Be  -0.93056670207784     -0.36029385307010     -1.55440030964471
  Be  -0.88685077967969      1.55082387850857     -0.54984760319432
  O   1.87601488252704      0.07701025487015     -0.18845215908842
