4
Coordinates from ORCA-job orca E -1384.899148196977
  Tm  0.16583354939318      0.22273269576794     -0.35606094617071
  F   -0.78039358928906     -1.10704479996681     -1.48140067100624
  F   -0.82450834740749      1.85046822715787      0.19340503417378
  F   2.03555838730337     -0.14426612295900      0.20745658300318
