39
Coordinates from ORCA-job orca E -1444.942028770595
  Sm  -0.04482405277135     -0.63461232442524      0.13402623321380
  C   -0.18317854632002      2.39771904056694     -0.48605336376783
  C   -0.41960373940211      1.97620663506551     -1.91640201751409
  O   -0.50165321511274      0.50555982231175     -1.92704256875238
  H   -0.15319379787063      3.48400037751447     -0.41364808125253
  H   0.78604144269458      2.04847822701975     -0.10695323418395
  H   -1.00481662183256      2.08168837274893      0.17304284951745
  H   0.39953686436495      2.27769525730998     -2.56503380245425
  H   -1.35433631894809      2.37106052275204     -2.30649305853935
  H   -0.61292602886986      0.19233554591641     -2.83366457879982
  C   2.94850523989174      0.13448515827413     -1.42156409970615
  C   4.41341377140124     -0.09967906616591     -1.11686260793901
  C   4.38787577900589     -1.39575246877880     -0.30811811082288
  C   3.18785642477518     -1.19219791004990      0.58732564297760
  O   2.21755539307830     -0.43805951900654     -0.25674549462123
  H   2.61765684653674     -0.41080104149226     -2.30414317957880
  H   2.67422919870025      1.18463752764279     -1.49511930150894
  H   4.82084158468006      0.71982944944438     -0.52596250662389
  H   4.99778457324449     -0.18416717014137     -2.02976781400310
  H   5.29516107561178     -1.54686156181764      0.27166498372261
  H   4.24633871992490     -2.26109724268932     -0.95508475336053
  H   3.41485420524143     -0.56549198136255      1.44820557192349
  H   2.69711493292649     -2.11201775944515      0.90119325397823
  C   -5.63068167424050     -2.14486943422903      0.90775679371152
  C   -5.35086626136317     -0.79406443427314      0.85514665895603
  C   -3.98950519976553     -0.34828068837177      0.65458993179881
  N   -2.94516943914804     -1.16336005419756      0.51584064219105
  C   -3.22736644632893     -2.46930216234754      0.56774487633553
  C   -4.55792040161535     -3.00241986184337      0.76136245180851
  H   -6.63767293891867     -2.51196069368030      1.05565384921266
  H   -6.12588254700396     -0.04414504687959      0.95961078101359
  H   -3.80246981412573      0.71838069374648      0.61498553724239
  H   -2.38771675477759     -3.14487630814842      0.45561214975229
  H   -4.67838630756920     -4.07882879637931      0.78737370676366
  O   -0.13313208565740     -2.63676374896307      0.37343676822024
  H   0.14829942941137     -3.55481332262197      0.39724827634336
  O   0.24581761097695     -0.06396747904543      2.47978699086599
  H   0.47807638492121      0.76773299433620      2.91485726941445
  H   0.30874271425380     -0.73961954829451      3.16959335446543
