26
Coordinates from ORCA-job orca E -2566.051849199202
  Tb  0.42855411778545      0.59259859568201     -0.60067772395880
  C   2.51699759897553     -2.56205407843482      5.39341988863081
  C   3.33122457506044     -1.61707310714178      4.78172517382217
  C   2.94656466559998     -1.04453532750380      3.57796059664314
  C   1.74915023847375     -1.41634800130880      2.97969124026231
  C   0.93622980236772     -2.36170865034326      3.59165983163705
  C   1.31866839316884     -2.93337833586143      4.79687135841988
  C   1.32538331844695     -0.77400469615794      1.67906056781300
  O   2.06407119951389      0.11317164494180      1.18828489234711
  O   0.24010441897596     -1.14238173501504      1.15831927064492
  H   2.81435603952651     -3.00578261198135      6.33618663134613
  H   4.26419190485779     -1.32340005766760      5.24720434925052
  H   3.55248096767910     -0.29952534537386      3.08040344382565
  H   0.00682117522908     -2.62535836192620      3.10554905921420
  H   0.68032478507959     -3.66632067150363      5.27493169966044
  S   -4.44165046549311      1.52873724872314      1.03737968350621
  C   -2.90961013878698      1.30533991094707      0.50968149491370
  N   -1.81544096412708      1.14315012784735      0.13169015388851
  C   -1.27694117211327     -1.58195125658443     -1.38758605473431
  O   -1.95765427618418     -2.44414246994500     -1.63436315972788
  O   0.37738397637020     -1.50439287264306     -3.75789446048866
  S   1.21035456729469     -0.39163829591098     -3.25494147699390
  O   1.73739894782839     -0.79391270376338     -1.83459853585054
  O   0.22168281177934      0.75494048168316     -2.79078494482103
  C   1.27117139959324      2.94744373829155     -0.15185119559696
  N   1.68358211309782      4.01232683095056      0.05327821634586
