4
Coordinates from ORCA-job orca E -743.098593994606
  Cm  0.90581633332809     -0.43924999153262     -0.24827102311494
  Be  -1.45559129563372     -0.32465120589059     -1.34019916347290
  Be  -1.18447293668729      1.49444269624740     -0.54028776078444
  O   2.33073789899293      0.09134850117581      0.69215794737228
