26
Coordinates from ORCA-job orca E -1716.003251856486
  Lu  -0.03240900381189     -0.47312706273440      0.32987186675144
  N   0.75092578501298     -1.03080270383458      2.49381055773833
  C   1.55878302549205      0.18333909828211      2.82121029492465
  C   2.72925916762999      0.27371789835808      1.86129129055678
  N   2.28665091502899      0.27670205157094      0.42628005266153
  C   2.39231540898412      1.60809476130842     -0.25636175859537
  C   1.04934740053181      2.30505114059238     -0.33825827532252
  N   0.09409207848305      1.42740408312999     -1.08082238435985
  H   -0.04340249329142     -1.07491145472967      3.13023782933245
  H   1.30397829040790     -1.86138757015939      2.69336108857373
  H   1.92246472598976      0.15243424381135      3.84735836418078
  H   0.89918732075281      1.05043625794206      2.74152335374190
  H   3.38437918639707     -0.58586953060505      2.00732225900724
  H   3.32013494833684      1.16258000387327      2.07767848116441
  H   2.92872675011793     -0.33735386348581     -0.06358195566706
  H   2.77320936485736      1.43593462175375     -1.26398711434467
  H   3.11668246731466      2.24206077706793      0.25315880123172
  H   1.15822169245892      3.27298355213026     -0.82525983194156
  H   0.62941630969753      2.48889611507953      0.65313154517123
  H   0.38202850207538      1.37706477060525     -2.05559529150105
  H   -0.82081088235530      1.87564060831229     -1.09204436298524
  F   -1.38177699634713      0.52561980129570      1.25859376645306
  N   -1.24479216567518     -2.27978043538116     -0.67882927737493
  H   -2.23135095097194     -2.18457447390698     -0.43072899635783
  H   -0.99380934057112     -3.22223224904609     -0.38013141646943
  H   -1.23865150654522     -2.32592044123019     -1.69772888656983
