6
Coordinates from ORCA-job orca E -1331.639576863725
  Eu  -0.05172272255508      0.48061489255824      0.98290170361558
  H   -0.09154432029840      0.90995961684242      3.00784004740318
  Mg  -0.89079915499125      0.13998025425029     -2.12370017120505
  B   0.70495217359931     -1.12569227172627     -1.32584462900812
  P   1.67130217710719     -1.57664465568111     -0.00936587985098
  N   -1.34217815286178      1.17178216375643     -0.53182107095461
