27
Coordinates from ORCA-job orca E -1659.938816727748
  Tb  -0.24047242588699      0.36785715408253      0.96403189801811
  N   2.22307483205767      0.06214522480097      0.28027263105021
  C   2.95457158920950      1.16989642626228      0.17955180821334
  C   4.23236524670201      1.17073460854004     -0.35435460317471
  C   4.75830569216420     -0.03040127125893     -0.79543332260183
  C   4.00124633754780     -1.18530475389391     -0.68306169917246
  C   2.72878659915074     -1.10354239665191     -0.13504108642730
  C   1.84519045885500     -2.29079949608021      0.05226490746696
  C   2.23318107606936     -3.57920046435587     -0.28477891982650
  C   1.35596610078405     -4.62679874985823     -0.05281052082818
  C   0.12135891621557     -4.36314464757405      0.51118072203000
  C   -0.19420041016606     -3.04954831963370      0.81964605280974
  N   0.64583235073909     -2.04081165628631      0.59170364597733
  H   2.48494831797354      2.06985572821883      0.55712856664423
  H   4.79232193656542      2.09166379555956     -0.41991784587853
  H   5.75143591793107     -0.07336637552925     -1.22123247390493
  H   4.40308045798058     -2.12824884638741     -1.01959382162315
  H   3.20194906836257     -3.77282818105805     -0.71818159992090
  H   1.64072631104296     -5.63810887688498     -0.30913392090473
  H   -0.58884410040617     -5.15136569473021      0.71201870794037
  H   -1.13833037099124     -2.77029010460536      1.27090669624232
  N   -0.80818817172535      0.81486497231802     -1.14265557699202
  N   -1.07792464945807      1.12632216434649     -2.26659731648772
  N   -1.33262214545767      1.41679509749724     -3.33337100800129
  O   0.49866839795341      1.96048155267109      2.05509187388643
  H   0.55942406490248      2.61105883810105      2.74793357976846
  F   -1.63415139811560     -0.73701572760960      1.99443262569676
