6
Coordinates from ORCA-job orca E -13874.786527933955
  Lr  -0.11933388780231     -0.21908472509593     -0.00405250709661
  Br  0.72363618713227      0.41391686568626      2.52201829863981
  Br  0.02420528376160      0.94385389982513     -2.48057950001713
  Br  -1.35433407195858     -2.46355959780735     -0.07568924925062
  Br  2.56244308699268     -0.54841125908577      0.45686367145492
  Br  -1.83660659812566      1.87328481647766     -0.41855071373037
