5
Coordinates from ORCA-job orca E -10889.253041613621
  Am  0.13341986676220     -0.94684175287955      0.20073702568062
  Br  2.29224687730242      0.47869542712326     -0.21653554390911
  Br  1.21856303949790     -3.07885521114064      1.27576438809887
  Br  -1.12402330124995     -0.59800058525825     -2.07495446601228
  Br  -1.82571648231256     -0.50203787784481      1.88704859614190
