5
Coordinates from ORCA-job orca E -833.531299249685
  Tb  -0.07269677071635     -1.43289792076240     -0.01067414316607
  Li  1.35362692008348      1.10852515133707      0.87318984422897
  H   0.57029737752461     -3.17754694306481      0.68952039008975
  H   -1.05234006047995     -1.40438420174825     -1.73864065288069
  H   -0.10439746641180      0.25926391423840      1.25866456172803
