35
Coordinates from ORCA-job orca E -2407.084770921387
  Tb  -0.21532010241463     -0.58442361905000      0.17675557918525
  N   -2.37934004967205      0.04533349737935      0.62558483352306
  N   -3.56818979040859      0.05321839795003      0.57777663341313
  N   -4.71002586707190      0.07681268255487      0.53954371215995
  O   -1.61180904742961     -2.40680215889692     -1.12567912738473
  H   -2.00617051993378     -2.88933083501588     -0.39269225008279
  H   -0.71121634877428     -2.78014366622305     -1.21989130520151
  C   0.00683993273731      0.63090530423290     -5.00473291098591
  C   0.95523601473924     -0.20442085997101     -4.43804794305650
  C   0.84589298610666     -0.52247386526126     -3.09384746998667
  N   -0.14184029877412     -0.05123211136041     -2.33199238809697
  C   -1.05295753863707      0.75366698689324     -2.87697631667493
  C   -1.01886507765169      1.12021591871102     -4.21143199022522
  H   0.06628742258181      0.89917087755634     -6.05168891605139
  H   1.77223461005153     -0.60594422393323     -5.02030820129895
  H   1.55024547401625     -1.17405442212777     -2.59084046140451
  H   -1.82713999986649      1.11500157186908     -2.21059300226662
  H   -1.77853277760460      1.77630157798525     -4.61126426030155
  C   0.49979558556776      1.87069925229741      4.24058430916178
  C   0.03631308443573      1.40742321760104      3.02061330391680
  N   0.57295393260488      0.33271302583173      2.44787348961971
  C   1.57276059678674     -0.27654122046123      3.08358062170629
  C   2.03030466462286      0.21389133013114      4.29964248433890
  N   1.50058714474519      1.28070872138493      4.88839782192293
  H   0.05273104098866      2.74144611436815      4.70390009015184
  H   -0.76849053885575      1.89528017344304      2.48661426745366
  H   1.99484410191920     -1.16106196984400      2.61547356872558
  H   2.84804141102077     -0.27894841913005      4.81007785229867
  O   0.10485669902673     -2.39485545365601      1.47883666716252
  S   1.17467352507305     -3.18686766026864      0.63885529674186
  O   1.03591163139790     -2.35904106413932     -0.70480898888685
  O   2.48800249901856     -2.85633189837809      1.22154144279065
  N   1.28622602675687      1.94388046165103     -0.27191956520099
  O   1.81993919560635      0.81412866388871     -0.27108966792388
  O   0.05132037729046      1.90507567198761     -0.03944720924260
