5
Coordinates from ORCA-job orca E -2068.428396033650
  U   -0.71806265562091     -0.74331779355008      0.07475373225921
  S   1.93691040185135     -0.31485163321340      0.26559915779930
  S   1.46145275288059     -2.21387807332684      0.66975973544170
  S   -0.74703976005846     -1.22087621289821     -2.19376182573709
  S   -1.23877073905257     -0.15411628701146      2.25570920023687
