4
Coordinates from ORCA-job orca E -5233.825856561301
  Th  0.07622597424393      0.09992257811707     -0.43679564604862
  B   -1.05126278854399     -1.50718203174945     -1.78143945024537
  Se  -1.06383550510782      2.41181873390430      0.38605736531271
  Se  2.63536231940787     -0.18266928027192      0.39557773098128
