7
Coordinates from ORCA-job orca E -2677.097924796543
  Md  -0.02268811666986     -0.00203794188267     -0.02070660680981
  I   0.63026729058218     -0.34180424772662      2.86574308347026
  I   0.18807055813086     -0.68140811540985     -2.90613127082461
  I   -0.19385492688859     -2.91402124903229     -0.55031971527180
  I   -0.55921745962497      2.90784025067608     -0.20196534195969
  I   -2.90906692015631      0.67106364349732      0.19942727411620
  I   2.86649957462668      0.36035765987802      0.61394257727946
