45
Coordinates from ORCA-job orca E -2113.233744942203
  Yb  0.02702006460664     -0.28809784537232     -0.30386244441550
  N   -0.88981351960566     -0.64376371262128      2.07710353118836
  C   -0.09750562316502     -1.69826939420134      2.72464137664034
  C   1.36974248778695     -1.30436093930797      2.78638429098164
  N   1.89850432992785     -1.07100112178250      1.43920284704106
  H   -0.94448856280157      0.18051220477913      2.66381582773315
  H   -1.84206854701578     -0.94650506113190      1.91076489032538
  H   -0.19445535002486     -2.59489566048763      2.11117546858241
  H   -0.44482733957137     -1.93264339532107      3.73564564985594
  H   1.90897277450132     -2.09007390063574      3.32612047349831
  H   1.47375472181199     -0.38618572821905      3.37509747877543
  H   1.70313501549647     -1.88662538071498      0.84219757614335
  H   2.90001690914508     -0.93281720321408      1.46670521700825
  C   -0.45138453380685      2.10495852866144     -4.27139383301608
  C   -0.88354312478942      1.50509212007226     -2.95387881919692
  C   -2.23466716078872      1.62893189871308     -2.57318390097242
  C   -2.80544376770747      1.07539685190021     -1.41372854439815
  O   -2.18630126441275      0.43401491283974     -0.52224892496707
  C   -4.29003126254463      1.25423822108848     -1.19305503814678
  O   0.01230807065906      0.93577712028240     -2.28006938846452
  H   -1.26096281130106      2.60925976062641     -4.79300210362667
  H   -0.05403139711123      1.30952540212798     -4.90210883526291
  H   0.36165783601691      2.80818740102130     -4.08988984582393
  H   -2.89517856682908      2.14798421298560     -3.25148696870249
  H   -4.76514324454437      1.84908119785560     -1.96905470220455
  H   -4.45029682947916      1.72515940373170     -0.22290944225999
  H   -4.75811451540513      0.27016768325365     -1.15636905530292
  C   1.71335029363315      3.69311385655867      2.00587649329495
  C   1.56165198634350      2.39271820462763      1.55063956668845
  N   0.64968281847288      2.07778288120950      0.63399383689041
  C   -0.10796985434864      3.07222567806875      0.17447234228042
  C   0.05086490005898      4.37027119229279      0.63997036260738
  N   0.95832637082015      4.68980625891990      1.55586991763512
  H   2.46157573853197      3.93477008197109      2.75037627591631
  H   2.17963070159473      1.58464620950260      1.92035146840282
  H   -0.84870682974893      2.82654337036135     -0.57686230977474
  H   -0.57253594400910      5.16955028467508      0.25979285708223
  C   1.08277652159176     -3.66215822875153     -2.46252641123980
  C   0.36715579217362     -3.66569398320318     -1.11589009811212
  O   0.43005569985966     -2.43354194163115     -0.48969714193332
  H   1.03198590350255     -4.63812091613675     -2.95137490582857
  H   2.13298401205146     -3.39622255905485     -2.32800455471868
  H   0.63063919231543     -2.91964397215294     -3.12286074224052
  H   0.81678834951362     -4.45545926974286     -0.48896990313329
  H   -0.67711044140476     -3.97833472444338     -1.28136983482974
