5
Coordinates from ORCA-job orca E -530.268694568684
  Np  -0.53756965457329     -0.60806527255949      0.03968135750410
  Li  2.70984634236959      0.06270785002352      0.38970561340656
  Li  1.88722647492890     -2.92377814067877      0.87946544412501
  H   -1.46395986495497     -0.93840304592410     -1.75983484210065
  H   -1.90105329777024     -0.23950139086116      1.52304242706498
