36
Coordinates from ORCA-job orca E -5452.215324935963
  Gd  -1.29100779091590      0.99094070387023      0.72139793123643
  S   2.42455761888267      4.16895150674484      2.43733004249725
  C   1.11648944551709      3.29519182987977      2.00664875499598
  N   0.21938895584138      2.62322103316876      1.67308200640806
  C   2.97970293263059     -0.91058523422763     -0.92914896392778
  P   2.21070679223238      0.46546490297361     -0.05364584968674
  O   0.73213896953586      0.46625483120018     -0.33585354467586
  C   2.65133439122510      0.25336994171953      1.66828192144527
  C   3.01715363582160      1.95192751726215     -0.64740001346705
  H   2.72852932684759     -0.84274175794959     -1.98701918778398
  H   2.58058448028962     -1.84338267790315     -0.53178271906743
  H   4.06244570047487     -0.89930866119783     -0.80841716651961
  H   3.70049353367487     -0.03414951917387      1.74705651824685
  H   2.00992392340477     -0.51749759960944      2.09843789334738
  H   2.49061037677865      1.18311894355998      2.21117253651789
  H   4.09871480709313      1.87156621351735     -0.53657469218732
  H   2.66949405752199      2.80613879254962     -0.06595081754432
  H   2.76167968854150      2.09431097158850     -1.69693537580370
  O   -2.89667476433001      2.70077906860021      0.65082470423072
  S   -3.48691433063179      1.89429639294206     -0.52792773337660
  O   -2.19435300891802      1.61785543855128     -1.35065256448863
  O   -3.71022542950865      0.53014899255726      0.13982893934951
  C   -3.13434797702696     -2.58225975476419      0.34387713384653
  P   -1.80246094900108     -1.67284249672716     -0.50783023374610
  C   -2.43148554568674     -1.61329828524472     -2.22122760809197
  C   -0.50059433523480     -2.96015855037612     -0.63140959389319
  H   -3.38416712729563     -3.51206625231532     -0.17193464153320
  H   -4.00339961133391     -1.92694088815316      0.38385401617822
  H   -2.81684591869614     -2.79556685256625      1.36401919558600
  H   -2.69680878763361     -2.60431654198683     -2.59633255304670
  H   -1.68065031655735     -1.16033123728178     -2.86821033911860
  H   -3.30437428303394     -0.96248209680469     -2.22543033948805
  H   -0.88387427818051     -3.90243315588288     -1.02878725570180
  H   -0.08705985097770     -3.12810072385399      0.36393010866181
  H   0.29693567377927     -2.59836939399076     -1.28173424758200
  Br  -0.82054000513028     -0.86020540067587      2.83926373818274
