30
Coordinates from ORCA-job orca E -2374.050579919465
  Tm  -0.07353095285343     -0.02357093129195      0.32295996243822
  C   -5.44167581458252      0.67998796843039     -4.10098743997148
  C   -4.90683318680452      1.79476910974451     -3.46867107068734
  C   -3.84724347395450      1.64938449582809     -2.58596376093283
  C   -3.31567845565647      0.38996251779684     -2.33882563941741
  C   -3.84838042550559     -0.72379141961209     -2.97567876114435
  C   -4.91270604601590     -0.57991438302728     -3.85280142418180
  C   -2.16649150781608      0.23321843713464     -1.38483442364454
  O   -1.62292657023306     -0.89694696801549     -1.26139819703701
  O   -1.77449161476147      1.23840732204623     -0.73158145435085
  H   -6.27056626547379      0.79328311959695     -4.78827433600644
  H   -5.31656584020879      2.77713662280251     -3.66508914256439
  H   -3.41294908875643      2.49986089254882     -2.07927959722472
  H   -3.41506056934296     -1.69205089631344     -2.76740572652769
  H   -5.33017865948482     -1.44895133539658     -4.34492442733514
  N   0.84464811293425     -2.18541234401998     -0.39741001718080
  H   1.35578248669422     -2.70209058613791      0.30588710378787
  H   1.50002646879416     -1.86210908247075     -1.10226741990417
  H   0.15629882859598     -2.77979496679574     -0.83999722991134
  S   4.19287778416254     -0.98364291278546      3.02160755402638
  C   2.84653184036585     -0.54891040120919      2.21674459345381
  N   1.87655328132401     -0.24283106441332      1.63539819637301
  N   1.28532022298455      0.60089045077341     -1.53076232826209
  N   1.62931398144160      1.72372469024232     -1.69905354170761
  N   1.95339119219087      2.81876871947712     -1.84085323707459
  F   -1.27895520958916     -0.58742492531505      1.86408937463729
  N   0.35885632509814      2.32155718103925      0.97471108608735
  H   0.87306470632254      2.81114354415397      0.24329589313691
  H   0.91680235878607      2.35029586926758      1.81934780081280
  H   -0.50643390865503      2.82355127592157      1.13001761031314
