6
Coordinates from ORCA-job orca E -3247.704182257589
  No  -0.11628568631695     -0.19490245573168     -0.01561427396844
  Cl  0.60483928096182     -0.11217355411872      2.48793300125767
  Cl  -0.36384062401581      0.58933130966178     -2.49662810036743
  Cl  -1.28080001177917     -2.35600277318864     -0.02506718313706
  Cl  2.42916568605401     -0.02445558032932      0.55134837542161
  Cl  -1.27306864490389      2.09820305370658     -0.50196181920635
