5
Coordinates from ORCA-job orca E -1967.018535782240
  Ac  0.86318074651656     -0.98542787402572     -0.32571441457925
  S   2.57177888400994      1.19549937201740      0.13858859457069
  S   0.34227617054338     -3.15173475566553      1.45820533443464
  S   -1.71592288080639     -0.92596644056608     -1.55118997927986
  S   -1.36682292026350     -0.77941030176005      1.35217046485378
