4
Coordinates from ORCA-job orca E -2985.421157311627
  Pa  0.27021227376530     -0.40264499499498      0.46268498683338
  Ge  -1.07568015325859     -0.34213279725845     -1.79305603389500
  Mg  -1.63481882223427      1.86532531425879     -0.50025324742111
  Te  3.03677670172756     -0.29865752200536      0.39402429448274
