23
Coordinates from ORCA-job orca E -2099.103949360487
  Tb  0.32952245029087      0.29333565784248      0.97693445313226
  N   1.62931278440252      0.50819688121286     -1.40353080176113
  O   2.19190268346248      0.58977764017058     -2.42981963716145
  O   1.05583156091754     -0.57657366906903     -0.98751747580910
  O   1.51414737892649      1.49165790246073     -0.56973051387135
  C   -6.78864262728010     -0.37327776915795      0.46562518811144
  C   -6.65706738670981      0.72989097645688      1.30159623740137
  C   -5.39986537576993      1.16360608284812      1.67157973275163
  C   -4.26613461684968      0.49287349983458      1.20055590361120
  C   -4.40535419443750     -0.60817732547826      0.35214526077337
  C   -5.66684572772885     -1.04105027389242     -0.00857455955580
  C   -2.92104921759642      0.91661573917255      1.56725694230988
  O   -1.89765178052605      0.45840928096884      1.02465512883493
  O   -2.71698051962757      1.81907079589634      2.49945059749048
  H   -7.77490961593703     -0.71144810723134      0.17949904737494
  H   -7.53378718339040      1.25105768539878      1.65706343375635
  H   -5.32908916052104      2.04303958742165      2.30136811299083
  H   -3.52625972990344     -1.11946118669711     -0.01130351196379
  H   -5.77858058530084     -1.89665096458108     -0.65861160382182
  H   -3.53754530473923      2.09235761389810      2.92981046454006
  Cl  1.26556508386200     -0.58595615921707      3.04056438082387
  C   0.76991812172868      2.74351956087111      2.11434583961253
  O   1.02096296272774      3.70428655087056      2.62193738042916
