32
Coordinates from ORCA-job orca E -1805.996290060536
  Ce  -0.00744906223387      0.70623394783766     -0.41774336281684
  N   -0.63685575058525      2.92370957268725      1.11389496715085
  O   -0.86885465275350      3.87452188192287      1.73828072173623
  O   -1.24520176219812      1.78258133978928      1.23402891990398
  O   0.28611130952625      2.85653593261291      0.18789386207969
  F   -0.58593990065031      0.70428521543554     -2.28690675450945
  C   5.27075520323725      0.74121468112114      0.50700859833272
  O   3.82255902469715      0.71594002845326      0.25555471186046
  P   3.03228859239036     -0.61255730876176     -0.02799508093712
  O   1.64372078878060     -0.31239692825698      0.93666884841835
  C   1.78560680194351     -0.53141059379089      2.38201801801740
  O   2.04873646881722     -0.09576853295816     -1.31269716222575
  C   2.65099775870129     -0.07355560163040     -2.65798569802694
  H   5.71946914631536      1.34348519041630     -0.27414111368971
  H   5.67477944158733     -0.26867593620230      0.49573846320078
  H   5.41606006045305      1.20228459720783      1.47675245055308
  H   2.19942800760128     -1.52307063324521      2.54776731109567
  H   0.79231910534627     -0.46879676763472      2.81515114993926
  H   2.42994888930837      0.24054088252771      2.79231632329513
  H   1.83626788912914      0.04500339708181     -3.36362057608840
  H   3.16220475714425     -1.01809044051577     -2.82655569469480
  H   3.33748783238648      0.76543775030253     -2.71616534991723
  C   -3.56133055972913     -1.92063575873846      1.27433008170913
  C   -2.70328733595155     -0.83952992821800      1.11900697872333
  N   -1.68663855242484     -0.91410695790277      0.25073362517808
  C   -1.53734165334645     -2.04543692133476     -0.45454957010752
  C   -2.40529436074424     -3.10953758540258     -0.28068108884104
  N   -3.41088427517584     -3.04240510371772      0.58366040362062
  H   -4.38590022026815     -1.86926994847235      1.97317992106742
  H   -2.82904297021334      0.07615664448423      1.67863159914693
  H   -0.72553459552636     -2.10319857322562     -1.17670963638893
  H   -2.28898542556465     -4.02238754187178     -0.84966586678547
