26
Coordinates from ORCA-job orca E -2101.182476417694
  Er  0.54972272715662     -0.14279862602724     -0.46615970189644
  N   2.27855949696638      1.41700618449591      1.33290803724092
  O   3.08874394338028      2.07932318179131      1.96896600225385
  O   1.20071201242168      1.91585402795480      0.92208282995298
  O   2.48479805789496      0.20393011778504      1.06703502407963
  F   -0.84773860177703     -1.12510895034545     -1.64885496346803
  C   -2.42428932814702      1.56833396197551     -1.01415360576854
  C   -2.76341049989761      2.67432839662796      0.00160572365848
  C   -1.45706762876534      3.48660564317777      0.11020892534504
  C   -0.67168110653652      3.03083648148824     -1.11313371668532
  O   -1.02002949815569      1.66026666716806     -1.24209445022003
  H   -2.93925548674804      1.73123608646897     -1.96947805776288
  H   -2.62679905390623      0.56275854426791     -0.66010852179781
  H   -3.03317620278051      2.24028245969476      0.96194998831865
  H   -3.59226788498422      3.28958621201172     -0.35791990525001
  H   -0.90706038730179      3.19763192953764      1.00363435883246
  H   -1.62284934629649      4.56583207452784      0.12393562591913
  H   0.40830619097977      3.08416617157134     -1.01913780501954
  H   -0.99527345396591      3.56871818011513     -2.01757341831059
  C   -1.88568997062639      0.14538179800531      2.18438485468468
  N   -1.07742950890417      0.01575823605984      1.35406573015683
  N   1.78932584851080     -2.73914601650202     -0.18260163732731
  O   2.11410731348933     -1.92490399647412     -1.09037386390667
  O   0.91860413231854     -2.35252692035739      0.63638418578353
  O   2.29960294766216     -3.84886593967671     -0.10779373024328
  F   1.62753528801249      0.99561409465768     -1.84027790856974
