33
Coordinates from ORCA-job orca E -1885.174937903378
  Sm  -0.42412564993190      0.02775114950217      0.34883092856136
  C   1.75425008369678      2.65534240467871      1.76110964286940
  O   0.59518139467777      2.12105467052914      1.09666710663767
  H   1.47690541559097      3.07847533223483      2.72367987699890
  H   2.23025033159662      3.40956595985614      1.13898912922914
  H   2.43881621231189      1.82725044439225      1.91408928729997
  H   -0.04464251180885      2.81688135668250      0.90736675553744
  Cl  -1.01402426489242     -2.46470562441612      0.66426400324331
  C   -0.19484690372572     -1.74278348487099     -4.09769726219479
  C   -0.12847001008055     -1.56019724494955     -2.72597737748654
  N   -0.42419025478461     -0.37963384514626     -2.17514292459891
  C   -0.80340086787149      0.60249855855255     -2.99724139561921
  C   -0.85963527324379      0.40161069052971     -4.36819528493289
  N   -0.55266972587242     -0.76457431482860     -4.92167889974466
  H   0.04097092589881     -2.70270144926949     -4.53771779920944
  H   0.13826138183333     -2.36711436378511     -2.05598085849457
  H   -1.08326549625849      1.54465093145352     -2.54542378487157
  H   -1.16534165529251      1.20224601610797     -5.02865254839514
  C   4.21207115099602     -1.98174298148727     -0.03060439793307
  C   3.00805689874050     -1.17980120182765      0.08852020481079
  N   2.05218121568410     -0.55496028260902      0.18205400373050
  H   3.95115923014293     -3.03315025239293      0.07410011476563
  H   4.91422081344844     -1.70222688971814      0.75204485917898
  H   4.66670963879735     -1.81314286424225     -1.00457954110747
  C   -3.63282436453021     -0.26063822366101      2.28222987152036
  C   -2.44653903310726     -0.31908963244929      3.21245949918702
  O   -1.23034251656069     -0.07320753954011      2.63727322327945
  H   -4.55738635469141     -0.39484577843783      2.84119248651697
  H   -3.56650277517166     -1.05541002414330      1.53907321220343
  H   -3.67464947605025      0.70254502629479      1.77340588834407
  H   -2.33916127210934     -1.29435962368901      3.72402882275240
  H   -2.51843366138477      0.37488346196705      4.07125449152937
  F   -1.75418262604714      1.50792961868259     -0.22644133360792
