5
Coordinates from ORCA-job orca E -1015.668705545251
  Fm  -0.40778731247037     -0.54961176808930      0.02875459780513
  Be  2.44871771682481     -0.46613760252761      0.33646663702363
  Be  1.72915641450050     -2.21633187022888      0.86283273162970
  O   -1.35417205464785     -0.86307233114528     -1.75974762058580
  O   -1.72142476420710     -0.55188642800892      1.60375365412734
