6
Coordinates from ORCA-job orca E -1168.195411242189
  Yb  0.01386454114448      0.46785854276071      0.21330066192988
  Li  1.94814391511175      0.25530083572105      2.57972511012418
  H   -0.53057162855274      0.42289569815516     -1.90786143724921
  H   -1.02045492916746     -0.81955063159198     -1.22686086712418
  H   1.35672075289042     -0.80638696139947      1.41675545017900
  H   -1.76769265142646      0.47988251635454     -1.07504891785968
