5
Coordinates from ORCA-job orca E -1084.108707659170
  Ac  0.65845857004783     -1.18631672248322     -0.81661655679635
  B   2.10415567659830      0.99003644893411     -0.02146911003673
  P   0.99479653258838     -3.22780899526261      1.62235869415094
  O   -1.21290459989009     -0.25500605226897     -1.02377428416988
  Te  -1.85001617934443     -0.96794467891931      1.31156125685202
