32
Coordinates from ORCA-job orca E -1918.692102802131
  Ho  -0.64382242391479      1.67215797757926      0.77100942078058
  C   2.94994687661789     -0.98767777027291     -0.01750156378939
  C   1.97982478771803     -0.22459551440309      0.83521505433583
  C   2.12203512863699     -0.22567227375903      2.22526294844661
  C   1.26355406548793      0.45653196000661      3.09421681399330
  O   0.27617390113443      1.15975814800739      2.71256610341588
  C   1.48216052819132      0.38199325388357      4.57647931398115
  O   1.05761769357533      0.39277794761713      0.21196110411304
  H   3.70515379351772     -1.50178087118446      0.57002615493129
  H   3.43091552869047     -0.29333775720507     -0.70645955527484
  H   2.39792618077967     -1.70913264792901     -0.61977700301929
  H   2.93583014194108     -0.78957711581731      2.65276623125001
  H   2.33902718879749     -0.23057956831958      4.84173271671690
  H   0.58308741015819     -0.02169024249143      5.04221328076974
  H   1.61786224523918      1.39238148424687      4.96195003044862
  C   -6.58644734657501     -0.56424477263085     -1.91212245055985
  C   -6.24802932872310     -0.88115440687787     -0.53540433514607
  C   -5.08922204615984     -0.47881685474726      0.00022814809093
  C   -4.13912321477481      0.29787230692538     -0.81509701324794
  C   -4.48871112028471      0.61983214471384     -2.21327242629905
  C   -5.65629914085040      0.20207535659112     -2.71761048554338
  C   -2.89291326503107      0.74376514286962     -0.26049110749337
  O   -2.07369491371935      1.43233051301747     -0.97418849498526
  O   -2.57975208225200      0.47135023637808      0.95608769082516
  H   -7.52370474644868     -0.89475962090480     -2.33114533967339
  H   -6.95364122564024     -1.45022845545513      0.05446508285212
  H   -4.81348304397400     -0.69769448425308      1.02054615624097
  H   -3.77859113162243      1.19376869275873     -2.78862715356946
  H   -5.92304913994948      0.43390673850921     -3.73983237577330
  N   -0.42251527662740      4.46789999981590      0.88174282520556
  O   -1.28887577886829      3.81846443506831      1.51799819770417
  O   0.33885975493000      3.73157601826235      0.19986203027270
