5
Coordinates from ORCA-job orca E -1872.507007861233
  La  0.24215674508776     -0.67898431892671     -0.13461376138143
  Cl  2.28285783060389      0.94699562578136     -0.10833190196263
  Cl  0.38396914693542     -2.95644871472756      1.48593089327957
  Cl  -1.00654983897695     -0.94165394267769     -2.41019645364078
  Cl  -1.20794388365012     -1.01694864944939      2.23927122370528
