48
Coordinates from ORCA-job orca E -1714.423211195600
  La  -0.38960468492803      0.59349256376093     -0.59907656867471
  C   3.24945765571660     -1.21455906719229      1.28662735905488
  P   3.04839710488513      0.51985559307445      0.92257838855222
  O   1.56957045279845      0.83614322370116      0.59371944670941
  C   3.56287052047906      1.47503128852718      2.33818503072191
  C   4.09726223726182      0.92130558650576     -0.46263837259866
  H   2.62022467059021     -1.49201732118212      2.13162158095961
  H   4.28901691414834     -1.42383607303975      1.53885477045577
  H   2.97279308170301     -1.79188504104103      0.40412279145047
  H   4.60239883244159      1.25413706989586      2.57959466290742
  H   2.93930557162257      1.22774698753621      3.19618703544811
  H   3.46825791778430      2.53796753878918      2.12056999981870
  H   5.13757164098988      0.71241934681897     -0.21289081310271
  H   4.00190530772722      1.97801966650357     -0.70955935521824
  H   3.80825502963567      0.31032153633817     -1.31775282767317
  N   -0.41651128725760      2.08618221264111     -2.85089421227956
  H   -1.31638632986631      2.39170862579939     -3.21089539031067
  H   -0.03717848311803      1.44626069660694     -3.54662421295315
  H   0.17632796505578      2.91159369097053     -2.88221477478565
  C   -3.32306427028825      3.76864869396779     -1.16707638308109
  P   -2.74252067358591      2.66364244350081      0.16197425769239
  C   -2.38629005819458      3.81879523033548      1.52563272109711
  C   -4.27378400860535      1.84015459590327      0.70733036391963
  H   -4.12922966776621      4.40683830860537     -0.80500395921253
  H   -3.70060189466976      3.18798807159751     -2.00869379404604
  H   -2.51090132701724      4.40689304698766     -1.51410475811782
  H   -3.25672594308312      4.44245686906130      1.72965953443084
  H   -1.54784011884146      4.46480894957679      1.26827611386450
  H   -2.13303813661059      3.26932945523401      2.43151807224761
  H   -5.03307689349891      2.57910108031429      0.96351928990434
  H   -4.07743202071507      1.22234637900116      1.58276576925600
  H   -4.66107605673772      1.20107111454273     -0.08533710645510
  C   1.54774885011487     -1.31114469630901     -1.97439563399802
  N   0.55617140900906     -0.81401576064909     -2.35766248304534
  C   -3.29700451136800     -3.30106580873621      0.72921191591974
  P   -1.92539500100540     -2.78254254555380     -0.28591524109564
  O   -1.64079617079140     -1.28197877926859     -0.05691428419385
  C   -0.49162923563962     -3.75757610498182      0.13821523506927
  C   -2.32079858289125     -3.09205156492183     -1.99805973730888
  H   -3.06034570521487     -3.13716158705213      1.77959112140150
  H   -3.50047447142654     -4.36006811132605      0.57170785309804
  H   -4.18526152118219     -2.72731279358145      0.46841361096145
  H   -0.69390126473155     -4.81558336585814     -0.02754576174733
  H   -0.24130403720241     -3.60759151930587      1.18792691679397
  H   0.34707971772810     -3.45391162476227     -0.48908809727660
  H   -2.50798088908844     -4.15448371539294     -2.15307685174043
  H   -1.48241324960009     -2.78225252907056     -2.62193680174311
  H   -3.21334838476547     -2.53432185687283     -2.27954642107654
