51
Coordinates from ORCA-job orca E -2403.432728415561
  Pr  -0.88024447121855     -0.08057832904522     -0.81414840559454
  N   -2.70944907294987      1.23393985172641     -1.72891911027331
  N   -3.81008014475873      1.63669188850742     -1.45259723271124
  N   -4.83856684736081      2.03883538669924     -1.19407691710433
  N   -0.29236439785037      2.69354356337146     -0.87113330374245
  N   -1.16548899524863      3.57846507284825     -0.97091793314376
  N   -2.00004255381052      4.30659333639120     -1.10832962401794
  C   -0.42806314710430      0.25249760136874      2.69758519088673
  C   -1.12600729736880      0.97637755094134      3.83332528801028
  C   -2.44674342811414      1.37336791509214      3.17509049849357
  C   -1.99594510460285      1.77754077934946      1.78357016832998
  O   -0.83025363484601      0.95840098677885      1.49909776768724
  H   -0.77325588280800     -0.77865941312448      2.62099250166078
  H   0.65964863798217      0.28033784514129      2.74126896991062
  H   -0.55946466250941      1.85951613353125      4.13422189176321
  H   -1.25888347781656      0.33431330323666      4.70158666756231
  H   -2.95976835628386      2.18464586171215      3.68708274660220
  H   -3.10962764247367      0.51167203593321      3.10704918624231
  H   -1.68333431777365      2.82403439534648      1.74127710443264
  H   -2.75242563479736      1.58678266016462      1.02214465577932
  C   0.04333666898634      0.97673618768627     -4.10905643656539
  O   -0.95431383126058      0.19351646477333     -3.45616186080655
  H   0.16468835369804      1.94520474544565     -3.62088777201900
  H   -0.21082905560389      1.12322534510401     -5.15954759194643
  H   0.98056779009272      0.43438203530249     -4.02852350462809
  H   -1.76778861345104      0.71769592974371     -3.34302696968173
  C   3.25010433691619     -3.11459892161990      2.31213875576115
  O   2.58666702385349     -3.43452924792866      1.09277068369149
  P   2.08402920028047     -2.17614510396174      0.16537285280330
  O   0.50537390635680     -2.05506849774132      0.62554963761752
  C   -0.17606035380822     -3.24735843179767      1.09137338084796
  O   1.79051972129019     -3.05824329639758     -1.18320256590704
  C   2.92080050104802     -3.36343256467998     -1.99788883700836
  H   3.95807200065111     -3.91130914540542      2.52560142485080
  H   2.53265284368375     -3.04587253458280      3.13162465739250
  H   3.78876923099710     -2.16694091793463      2.23462883075894
  H   0.26206956682657     -3.57678164891409      2.03034832192833
  H   -0.07987818688004     -4.04633325502803      0.35796874079994
  H   -1.21623414013225     -2.97829857839142      1.23738704414033
  H   2.54619092033263     -3.71977021350707     -2.95365741664593
  H   3.52846120668543     -4.14045814972799     -1.53433146592688
  H   3.53183443964293     -2.47374968612097     -2.16558071054674
  N   -1.16737521452933     -2.39874440940559     -1.99698443988681
  H   -1.39022800865448     -2.26230346856620     -2.97571068144770
  H   -1.89909496118838     -2.95661188201115     -1.57226930024841
  H   -0.28857262643581     -2.90529969817461     -1.93377206779906
  I   1.39516290655681      3.41641303266176      0.05628980079181
  C   -2.74487539528846     -1.22516763268007      0.66981792781557
  N   -3.37397347730584     -1.68081847232163      1.53209535430288
  O   1.23179965307497      0.10848236432926     -1.22629040568714
  H   2.14328402527887      0.38786122588203     -1.17504549752497
