29
Coordinates from ORCA-job orca E -4148.913900270341
  Sm  0.55822135843634     -0.00907928135800     -0.40165713169305
  N   0.24108372935364     -0.64602697019190      2.03031678970409
  C   -0.49465833009303      0.41079399606608      2.78708086896620
  C   0.00843080987817      1.77885644707314      2.37395127781133
  N   -0.18465074369384      2.02409838406422      0.91812632260591
  C   -1.54432085651943      2.50234501124661      0.54104716030964
  C   -2.37150781109223      1.42066155816843     -0.13071204498299
  N   -1.63487071994399      0.88031052113878     -1.31018909666686
  H   -0.18117659850863     -1.55035747163749      2.22818289994245
  H   1.18289033804914     -0.71443363945510      2.41531191049192
  H   -0.36679333339562      0.28291066016683      3.86139595474769
  H   -1.55795068483493      0.30045313175800      2.57561501472729
  H   1.07825677801216      1.85189592407894      2.57616060479579
  H   -0.48739929241120      2.55044950479908      2.96511457493963
  H   0.47498270800313      2.75414911108171      0.66401207364514
  H   -1.43004408858776      3.34258514465468     -0.14529910749328
  H   -2.07624261008701      2.88002680311406      1.41524082356504
  H   -3.34033975516500      1.82720588723493     -0.42022549243530
  H   -2.56587590723666      0.58950015206913      0.55069987832961
  H   -1.49434659347993      1.63219334663754     -1.98315014051139
  H   -2.22951987102797      0.21106918804047     -1.79425955173905
  Cl  2.98837336078451      0.66024531138381      0.24573396257278
  C   0.96469792851917     -4.53900676772917     -2.57368960416593
  C   0.71840028178722     -3.29359702379934     -1.87859168309099
  N   0.52579306672168     -2.30259001767358     -1.32875399467420
  H   0.52951229606054     -4.48637353090037     -3.57103675974422
  H   0.51129493108595     -5.35911194586677     -2.01845752374526
  H   2.03969686029765     -4.69822942297307     -2.65170901534333
  Br  2.02406274908794      1.71215598880834     -2.13695897086870
