5
Coordinates from ORCA-job orca E -1545.866459192968
  Pa  -1.42981394040347     -1.22769917185252     -0.12768794057182
  K   1.43593024078558      1.52417119306752     -0.29351580715798
  Sr  0.53954358826023     -3.62296460296651      1.81151287438856
  Cl  -0.03265658454980     -0.64813772863406     -2.16851068381443
  Be  0.18148669590745     -0.67240968961440      1.85026155715566
