4
Coordinates from ORCA-job orca E -511.854870388207
  Th  0.20786379333438     -0.09095550061808      0.16249148730076
  Be  -0.82977350051834     -1.54151399912911     -1.99328795162297
  Be  -0.83409185099468      2.50131483169576      0.30342291765588
  O   2.05249155817864     -0.04695533194856      0.09077354666634
