5
Coordinates from ORCA-job orca E -741.522210553014
  Pa  0.13956286496177     -0.92846898813144      0.21420608080038
  O   1.58587850791384      0.30984965349567      0.12957287908221
  O   0.80172424144943     -2.64974283997708      0.69587999859095
  O   -0.71221789454526     -1.03341471763437     -1.48760976367635
  O   -1.12045771977978     -0.34526310775278      1.52001080520280
