23
Coordinates from ORCA-job orca E -2725.060493489366
  Tm  -0.05241302010262      0.03834399526767     -0.02479369851277
  C   -1.63790674382118      0.21637819725029      4.72155437718044
  C   -1.06754611316802      0.08351181823919      3.39367531683158
  N   -0.62150104725234     -0.02108301691298      2.34445313051528
  H   -1.10652323557685     -0.43498024393478      5.41232494835313
  H   -2.68858272550839     -0.06478771399252      4.69079503180848
  H   -1.54611202489016      1.24921743551241      5.05117918592321
  N   0.42203396181993     -2.38535909911568     -0.17813339425083
  H   -0.30615960843781     -2.75998884220338     -0.78470074794300
  H   0.39613448027547     -2.94527873290290      0.66813284500568
  H   1.30512732429479     -2.58775096281219     -0.63693855199860
  F   -2.23507685054888     -2.23450756257999     -1.78073716842590
  P   -2.67185967166314     -0.72738057936016     -1.42838019165912
  F   -2.24319126605230     -0.94857446537818      0.24253463059522
  F   0.25853439027990      2.04824714520055      0.12589125169184
  S   4.17603865928246      1.37126614446627     -2.02529124675673
  C   2.82287815879468      0.60873152044273     -1.72878219805956
  N   1.72052597807462      0.21674782461174     -1.52063824798460
  C   2.29174527033314      0.05808039494724      1.43075937204782
  O   3.27836496585453      0.22826580815773      1.92818518026333
  N   0.92035443546122      2.35542364285411     -2.03217878138861
  O   -1.39225187180415      0.06737645725755     -1.73093626691547
  O   1.76008655435513      3.03550083498534     -2.07877477632096
