6
Coordinates from ORCA-job orca E -3390.423839311240
  Th  -0.80425694372119     -0.83857253700331     -0.22419474377756
  Ca  2.20127727038433      1.06743394986236      1.30689561715837
  Ge  0.38789899247805      2.07962147488724     -0.82157784750092
  O   -1.48705778523101     -2.56473022270155      0.19548442726089
  F   1.03011564734011     -0.72651269683458      1.15999627585682
  N   -1.32796718125029      0.98276003178982     -1.61659372899761
