56
Coordinates from ORCA-job orca E -2312.685001390212
  Tm  -0.24314598480439      0.51893879607934      0.36964384754526
  N   2.09809779002430     -0.11364933481296      0.54528527932823
  C   2.98020583120742      0.79352873110479      0.96701827186888
  C   4.34239369530000      0.65866768661761      0.76630790212064
  C   4.79720826449464     -0.45762652361496      0.08672767200564
  C   3.88381554810610     -1.40258587425749     -0.35348409547326
  C   2.53558855361436     -1.20390121093438     -0.10035950240637
  C   1.48586146721451     -2.17094714257370     -0.52706239458288
  C   1.78139288808957     -3.46212360427358     -0.93862524009644
  C   0.74693320469608     -4.30790198977875     -1.30342191642879
  C   -0.55741511767504     -3.84828785215364     -1.24084038345121
  C   -0.77175213756119     -2.55215330650050     -0.81036350427020
  N   0.22081424665580     -1.73043144476753     -0.46664512411099
  H   2.56599734800465      1.65535168691681      1.47511844349433
  H   5.02101085967155      1.41764805842927      1.12554973458973
  H   5.85234848136552     -0.59298565771015     -0.10581800169242
  H   4.22310714838386     -2.26864201293557     -0.90031522198353
  H   2.80059844326113     -3.81536093529791     -0.95840110061724
  H   0.95972568392827     -5.31825554350251     -1.62375832298072
  H   -1.39274336913464     -4.47737140687007     -1.50927814066950
  H   -1.77265277631204     -2.14714991969188     -0.72832110004750
  C   -2.38318729467557     -1.42411191277333      3.93161881855364
  C   -1.56072251961292     -0.39535053204747      3.21064549002705
  C   -1.04365789828586      0.69502083447208      3.92446310191234
  C   -0.26026685859382      1.70732207648467      3.36820322772116
  O   0.08314759652173      1.76089121705152      2.13869524879026
  C   0.23556469781120      2.82757106882523      4.23307155796224
  O   -1.39348801838545     -0.58440974542065      1.96494410532735
  H   -2.45750755197354     -1.23012789179033      4.99744780524772
  H   -1.94285147746000     -2.40757064048759      3.76820535905462
  H   -3.38420801056451     -1.44261354237783      3.49839751554846
  H   -1.26329088106564      0.75434959827085      4.97869314058047
  H   -0.09886170486721      2.74060880840120      5.26237217443147
  H   -0.10670978063420      3.77419914301520      3.81489026335708
  H   1.32569275861463      2.84085748252764      4.20646467315109
  C   2.04396703060058      1.59651805780636     -2.83165825197057
  C   0.81278049227292      2.32049774599376     -2.31053950565738
  O   0.26261875861695      1.65268314255449     -1.21666689163409
  H   2.47233343351803      2.11199149542648     -3.69188175267325
  H   1.78353492188996      0.58052056118794     -3.13585170937112
  H   2.80819334229789      1.53797774759072     -2.05373351793247
  H   0.07028441300002      2.39819974759809     -3.11544817290036
  H   1.07863923501368      3.34562270835558     -2.03016077615125
  C   -2.62885391370598      0.85594104026521     -1.91432954582288
  C   -4.08473136821132      0.51983807551326     -2.16432129859249
  C   -4.71232703984162      0.80122209238248     -0.80044288638917
  C   -3.66294610989028      0.26599161448533      0.15745093662314
  O   -2.39112678398940      0.44600302423995     -0.53236180666721
  H   -2.42628648812205      1.92339737337723     -1.98789403473693
  H   -1.92212680867023      0.31994259406027     -2.54335784119491
  H   -4.19654030433364     -0.53268425366169     -2.42932362091570
  H   -4.50968742553292      1.12095506194301     -2.96447536109062
  H   -5.67479525689262      0.31536928429728     -0.65962951141585
  H   -4.84592571956758      1.87390887598421     -0.65924022098892
  H   -3.78517371144581     -0.79850873848251      0.35819577170274
  H   -3.61427382236602      0.79891558545906      1.10380041397252
