27
Coordinates from ORCA-job orca E -4370.109302694897
  Tm  1.06917274336135      0.90261459021492     -0.26608883495835
  Br  0.91098169464855      3.42113486407677      0.54374475964891
  N   0.59890548840121     -1.52513247200572     -0.50496276824020
  H   1.42875180376669     -2.03080359695936     -0.20824156701173
  H   0.49012746833304     -1.68972944641344     -1.50062175401753
  H   -0.20556494632155     -1.92530849906328     -0.03740525526056
  C   3.16278601421372     -0.16985303025817      0.21513125915646
  N   3.86969684515828     -1.01422792111820      0.57446010963131
  C   -3.49374050077719      1.68874239711352     -1.80338493769524
  C   -2.32699172492755      1.22889131762519     -1.07001486135081
  N   -1.40614921501997      0.88314595756579     -0.48066529367944
  H   -3.28987260201990      2.68601054750412     -2.18698557587839
  H   -4.35862922686663      1.71209021955363     -1.14412477941165
  H   -3.67088632098406      1.02407558569168     -2.64487830263499
  N   0.79687516176214      0.92403751579330     -2.45341826333706
  N   -0.14218637122528      1.10044825696619     -3.16997762496672
  N   -1.05211302779342      1.26037110404083     -3.83551253900689
  C   0.83503864618395     -0.92566473592717      4.11383435917370
  C   1.16080962532208     -0.64875697111571      2.79396607684269
  N   0.47355264244853      0.25520080463792      2.09216907650028
  C   -0.51862111151657      0.88668070855693      2.72318933570008
  C   -0.82972432335973      0.59559286602014      4.04098442855652
  N   -0.16108028754714     -0.31359289849671      4.74186795115378
  H   1.40157621736705     -1.65873208222561      4.67288471803104
  H   1.99364153983614     -1.13341347835854      2.30085146315585
  H   -1.05364679096365      1.64544309198193      2.16923153084192
  H   -1.63660944148003      1.11503530459898      4.54116728905687
