15
Coordinates from ORCA-job orca E -3468.092463135747
  Pr  0.55890489988104      0.27021234053621      0.42487619822089
  Br  2.69468928295559     -0.15179062991619     -0.85586627616982
  C   -1.96478873154175      0.64690114887100      1.55295722735097
  O   -2.99702945803764      0.88528710805984      1.89142891279378
  N   0.38580497624375     -2.16375771265504      0.67677032207952
  H   0.40170074200128     -2.58772795777406     -0.25310249045490
  H   -0.48837248634097     -2.45921247220327      1.11679672909204
  H   1.14954654446302     -2.58875525128274      1.20663359579632
  C   0.91293835897828      3.18830310827825     -0.51922981751396
  O   0.66873350678267      2.15098969829392      0.50281158459830
  H   0.31406581588177      4.03538336986606     -0.18567485194845
  H   0.54811263661866      2.83249503210138     -1.48341497557353
  H   1.97769242074528      3.39452088817678     -0.52431198011110
  C   -1.25800350866089     -0.14067018368379     -2.29418151529413
  N   -0.68579499997007      0.03192151333161     -1.25639266286591
