5
Coordinates from ORCA-job orca E -443.482088950601
  Pa  0.13793133907511     -0.92880684279917      0.21377209022980
  H   1.66707609233801      0.37749910837396      0.12416247167973
  H   0.84096776692108     -2.74573935006779      0.72446177803219
  H   -0.75963153015968     -1.03780175818899     -1.58621180679805
  H   -1.19185366817452     -0.31219115731801      1.59587546685634
