5
Coordinates from ORCA-job orca E -3421.263391860865
  Th  -0.61041735060616     -1.48247456023105      0.89081484823216
  Mg  1.78472348212758      0.04915698415578     -0.59245038818113
  Sb  2.18258124747643     -2.83170390392351      0.50548442100158
  H   -0.06121866824351     -0.61265792028851     -0.95369752073678
  Br  -2.60117871075436      0.23063940028729      1.22190863968417
