5
Coordinates from ORCA-job orca E -10770.799984295665
  U   0.17553549192258     -0.90042548404723      0.20762411236315
  Br  2.17644870008653      0.81825309660784      0.10128502400617
  Br  1.00430669849591     -3.29768935863137      0.87353157065907
  Br  -1.05890346700484     -1.10190053835254     -2.09827549199029
  Br  -1.60289742350019     -0.16527771557670      1.98789478496190
