5
Coordinates from ORCA-job orca E -2205.995766152851
  Er  -0.25144060850103     -0.86916674864464      0.15067604284576
  I   2.50111300238194      0.15617281371539      0.23151224330063
  I   1.69835766318189     -2.92566650269055      0.91227988146035
  I   -1.31320481688718     -0.97751125505538     -2.41757049294802
  I   -1.94033524017562     -0.03086830732482      2.19516232534128
