5
Coordinates from ORCA-job orca E -3343.380527075724
  La  -1.17488262545913     -2.01319879354995      0.34571011248810
  Ca  1.33037013084390      0.16299974778735      0.20721500861660
  Si  1.82868654123048     -2.79563484966289      0.84892573689215
  Ge  -0.36515807165321     -0.47630764796829     -2.32641109158453
  Te  -0.92452597496203      0.47510154339379      1.99662023358766
