5
Coordinates from ORCA-job orca E -774.648026370861
  Am  -0.62651978215874     -0.75770874388094      0.10583780673073
  Be  1.83527526254474      0.95928261010301     -0.04039187457433
  Be  0.75429317632354     -3.33588119561335      0.79870830923819
  O   -0.35265666562373     -1.13997387544051     -1.54367601228157
  O   -0.91590199108582     -0.37275879516821      1.75158177088697
