35
Coordinates from ORCA-job orca E -1555.550922162292
  La  0.36640869747315      1.22599076719419     -0.04418614094139
  C   0.20454201026595     -0.00657066648808     -4.66521934713554
  C   0.23246045626428     -0.30749079706971     -3.18063420658639
  C   -0.14988428985288     -1.58515107563094     -2.74909500261804
  C   -0.16970160747602     -1.98650397751876     -1.39805546681934
  O   0.09604430245323     -1.26157827799913     -0.41711635248104
  C   -0.53389802669503     -3.42299587649678     -1.07746189623282
  O   0.60171533470491      0.63922110152530     -2.44483478239141
  H   -0.06282739921221     -0.87332497896729     -5.26787910895028
  H   1.18281333903818      0.36805184497666     -4.96723521106603
  H   -0.51923600604816      0.79218779970917     -4.83233308361313
  H   -0.43132568959943     -2.31071499830192     -3.49890326519581
  H   -0.80813745914200     -3.99850287183022     -1.96071037492217
  H   -1.35726830014403     -3.42088595894884     -0.36249988447359
  H   0.31904690639430     -3.89280823213695     -0.58584225908122
  C   -3.63269712688962     -3.27726911777685      2.46203292324973
  C   -2.89863922617796     -3.22739909142440      3.64117486319185
  C   -1.96242058621027     -2.22163566643269      3.82998408838810
  C   -1.73862168348898     -1.26385495222906      2.84600050740295
  C   -2.47253875950679     -1.31850515989794      1.66677262868085
  C   -3.41963461063923     -2.31857073871886      1.48092136405360
  C   -0.69509532754728     -0.17831610217368      3.10377256023261
  O   -0.21702663185336     -0.10086933879594      4.23018213527716
  O   -0.41481778732215      0.57141722976205      2.10546317931919
  H   -4.36736729588633     -4.05974355691532      2.30961308146706
  H   -3.05796100070098     -3.97254649566425      4.41227964196063
  H   -1.38167018036075     -2.14923981168024      4.73975489314814
  H   -2.30791471648137     -0.58499176317616      0.89157661610433
  H   -3.98723185001054     -2.34529346494922      0.55862720261773
  C   0.57607415844379      3.94185663528537      0.29352104400005
  N   0.66563968682979      5.09366028459383      0.41177168321523
  N   -1.85571589139395      1.94908110142653     -1.43389754297732
  O   -2.72684845409146      2.32419868566774     -2.19220156691665
  O   -2.10608611568445      0.93151637326833     -0.70846345873283
  Cl  3.11552113054788      0.78598114781422      0.16132053882583
