25
Coordinates from ORCA-job orca E -1689.558614022829
  Tm  -0.90675815734759      0.79506076364236      0.37036798861828
  N   0.12973218276684      2.85289090272359     -0.25500844932376
  C   1.55374632403668      2.70483306554416      0.19566471491545
  C   2.16473314400002      1.44385643405353     -0.39587171150551
  N   1.35815671187197      0.21882909945717     -0.10366507937551
  C   1.87229618446457     -0.63207922349387      1.01220763544864
  C   1.43239092870124     -0.12536053012945      2.37299659117305
  N   -0.06894611248539     -0.06922678799470      2.44461616738183
  H   0.12132022573004      3.00401550437153     -1.26480240342409
  H   -0.24631971300872      3.72210065045779      0.12261073573461
  H   1.55369982035173      2.68280516824458      1.28668757383133
  H   2.14515369241730      3.56974262033082     -0.10153813474823
  H   3.18645805707911      1.32781879385664     -0.03295477953831
  H   2.22438580149576      1.54791936259975     -1.47998766575795
  H   1.38358064194015     -0.36288231094634     -0.93707858496205
  H   2.96043220667147     -0.69678446210392      0.97642988060506
  H   1.48618610923985     -1.64069045207884      0.85113172414957
  H   1.81503102279083      0.87458374244196      2.57245482439626
  H   1.82598739563135     -0.77758139388287      3.15089157464460
  H   -0.33559049238292      0.39823967805850      3.31050928637783
  H   -0.41343527254757     -1.02219666160776      2.57497421179773
  N   -2.42431342632902     -0.72879829826153     -1.16556950718455
  O   -3.07783484952466     -1.40672619923259     -1.84428281770130
  O   -2.88654479477380      0.14289343020868     -0.31574733362600
  O   -1.11004763078923     -0.74196289625923     -1.15423644192698
