6
Coordinates from ORCA-job orca E -13308.764544385247
  Pa  0.06443020217848      0.10515030329338     -0.00147384704608
  Br  0.31553037368550      0.52732404392827      2.58791456744714
  Br  0.29872217755406      0.49885070358302     -2.59611215226958
  Br  -1.27172816427048     -2.13515494678320      0.01831414342987
  Br  2.53449218117273     -0.81068212173450     -0.00443943871186
  Br  -1.94143677032029      1.81451201771303     -0.00419327284948
