4
Coordinates from ORCA-job orca E -3056.732959786608
  Pa  -0.08257414241760     -1.14764823058415      0.37109946563217
  H   -0.66523842665105     -0.13573738215706     -1.42393589776155
  Sn  -0.55723292133022      1.68133828572260     -0.54411746403826
  Se  1.90153549039886      0.42393732701861      0.16035389616764
