4
Coordinates from ORCA-job orca E -956.955644465097
  No  -0.39004589201879      0.41312680704468      0.51400226429205
  Li  0.21748396941187     -1.57808052160305     -1.69653640657575
  H   -0.38651040156253      2.47429952887149      0.55971580310019
  H   1.15556232416945     -0.48745581431312     -0.81378166081648
