47
Coordinates from ORCA-job orca E -2149.004596701436
  Pr  1.08555518092540     -0.40915313197844     -0.48345316030439
  N   1.44791001085471     -1.96552112077479      1.46695842046979
  C   2.07485825514744     -3.13669550424809      1.29053273916770
  C   2.46373966161043     -3.94940830070749      2.33635308056405
  C   2.19378900683678     -3.52579418551684      3.62705615103874
  C   1.53508630777504     -2.32062572209243      3.82145188174660
  C   1.16456695948513     -1.56273987732708      2.72339031095003
  C   0.42441957770656     -0.27811803432494      2.84675629687604
  C   -0.10744910622954      0.16941606049399      4.04446291217380
  C   -0.80868475714153      1.36572147720093      4.07419560736193
  C   -0.96820073075545      2.08942149101160      2.90330057618354
  C   -0.41056936530460      1.58393452148526      1.74690754409082
  N   0.27221135684096      0.43111521846043      1.70955961128144
  H   2.26384764143950     -3.43545220993999      0.26656114034358
  H   2.96383844326469     -4.88622912982867      2.14110248410640
  H   2.48844751823020     -4.12582321417675      4.47676709565118
  H   1.32419632169683     -1.98394864611798      4.82421026781854
  H   0.00323008334491     -0.40657038161518      4.94958340230120
  H   -1.23148512986234      1.72221027036263      5.00326954201145
  H   -1.51433206918377      3.02059592343076      2.88384778492913
  H   -0.51630332572359      2.11584981599845      0.80794746331979
  S   -2.12669118374918     -3.18190461048711     -3.19313924989858
  C   -0.93210704063282     -2.91169853125552     -2.03138720569510
  N   -0.10388916456206     -2.64691571414784     -1.27751875394964
  C   3.31493883839282      4.21040077516721     -0.55283455021781
  C   2.67215550463266      2.91131206118919     -0.53482781516186
  N   2.16120025788964      1.88262287126531     -0.51903284440750
  H   3.36464113733310      4.57572453745686     -1.57755447363199
  H   4.32229350663749      4.12149024677508     -0.14841544538963
  H   2.74060442570981      4.90773902582385      0.05542395295201
  C   4.52484334165261     -1.46122805746855     -1.55945567017840
  N   3.48480475478963     -1.18888116235200     -1.17530101576758
  C   -3.79930251456470     -0.95061555727221     -5.53233781405741
  C   -2.67257345058050     -0.16621203778549     -5.84741979078291
  C   -1.62054383662946      0.07058450417041     -4.93734809940860
  C   -1.67628717286798     -0.48546805157325     -3.70027523529960
  C   -2.77209671034768     -1.40549146213699     -3.32876278743356
  C   -3.85401348249377     -1.56523799205901     -4.32370130585665
  C   -0.64801250784997     -0.14977100051957     -2.64365136403103
  O   -1.07715053412246      0.06576710444322     -1.47270417102291
  O   0.56248395781453     -0.17222552326251     -2.94050137656804
  H   -4.59251037737783     -1.07293823736200     -6.25633740956060
  H   -2.61528076647339      0.28538469075634     -6.83189590277710
  H   -0.79522763139460      0.71068373418675     -5.21715048201587
  H   -3.17380902383167     -1.15347345112217     -2.34118659056919
  H   -4.67790720114340     -2.22224508590526     -4.06677311033286
  H   5.50456503281111     -1.71838839631956     -1.91947264101871
