4
Coordinates from ORCA-job orca E -1551.143548413318
  Sm  0.13299856757172      0.22239043887665     -0.35648103712359
  I   -1.15936860351531     -1.73382700731362     -2.01094307012525
  I   -1.21812406749476      2.61408090799715      0.47986385036004
  I   2.84098410343836     -0.28075433956018      0.45096025688879
