37
Coordinates from ORCA-job orca E -1519.350294641426
  Tb  -0.17761842149767      0.57709344197364      0.66791057469763
  C   3.46602306268692      1.01505358931289     -0.59078839737890
  C   2.80080505044598     -0.34155807078620     -0.76741032481061
  O   1.48941042328805     -0.33490764574702     -0.29116931378411
  H   4.48719662971111      1.01228814782861     -0.97600968741662
  H   3.50073176501443      1.28210829286523      0.46742472502292
  H   2.89904004222394      1.78259734101485     -1.12078263744002
  H   3.39147152917011     -1.10379435057804     -0.24266619970839
  H   2.81509219285712     -0.61234989336326     -1.83151689833482
  C   0.02845767842963      4.03501317788442      0.67296314864903
  O   -0.04390737769239      2.89717356979840     -0.18847920440749
  H   -0.63006337098067      3.91884947801131      1.53471866601775
  H   -0.22862109645202      4.94273853512920      0.12784540515486
  H   1.05489165725293      4.10890776176980      1.02129845725694
  H   -0.96408283030734      2.74089659707111     -0.47555349897851
  C   0.06621514237682      1.37387617011049      4.00819213125484
  O   -0.05093351955274      1.06400517468158      2.65745140845513
  H   0.18190424553645      2.45357032443793      4.15988450466512
  H   0.93598253510465      0.88419319557096      4.45897212889916
  H   -0.81975406777019      1.05747283279498      4.56890187514588
  C   -1.48132072050579     -1.87434383856127     -2.03062377829165
  C   -1.64778790309393     -2.36370450546475     -0.60786731970620
  O   -0.65044826326378     -1.81507326974705      0.26569146639757
  H   -2.25464508286589     -2.30360794851897     -2.66804671056683
  H   -0.51044323244623     -2.17041895196298     -2.43146806302988
  H   -1.55751834644942     -0.78772750087523     -2.07019637464768
  H   -1.59867969653381     -3.45303588605500     -0.55411231966910
  H   -2.60585985464146     -2.04977348148246     -0.19611329908001
  H   0.23102724997780     -1.86462564502436     -0.14883916729139
  C   -4.17011079477685      0.77021496859382      0.67090799222469
  C   -3.36867727214122      1.03919273185101     -0.59412966271682
  O   -2.00179794374974      1.11822425778281     -0.33289872731052
  H   -4.00311502344581      1.56470059464610      1.39941430025221
  H   -3.85817981554357     -0.17233950819073      1.12601523611609
  H   -5.23945700476069      0.71140791350784      0.46022298881022
  H   -3.72561627264531      1.97092726769319     -1.05315221428392
  H   -3.57351129295926      0.24415513202700     -1.32639121016657
