5
Coordinates from ORCA-job orca E -913.154850697172
  Np  0.11333237612389     -0.92799820851310      0.22156891402090
  F   1.72507585684951      0.30024276217267      0.05331018962666
  F   0.91112965602563     -2.70600134949907      0.80176864906086
  F   -0.78054693623124     -0.93921158728250     -1.60247702019155
  F   -1.27450095276779     -0.37407161687800      1.59788926748312
