7
Coordinates from ORCA-job orca E -1282.516184136776
  Bk  0.00000183682805     -0.00000140974978      0.00000119514754
  F   -0.02244061897482      0.03987040182547      2.01005027459621
  F   0.02244801112762     -0.03987217585801     -2.01004678081536
  F   0.03928675375811     -2.00406502983200     -0.03997117048974
  F   -0.03928939005998      2.00406210833178      0.03997637419210
  F   -2.01015441846993      0.03918932889614      0.02244019998080
  F   2.01015782579095     -0.03919322361360     -0.02246009261154
