4
Coordinates from ORCA-job orca E -3288.560757116960
  Am  0.71809635044600      0.49203003022363      0.33805190481983
  In  -1.36352226702219     -0.53953496778864     -2.04823869336477
  Te  -1.81655720033378      1.76500559587279     -0.17623909611887
  As  3.05847311690997     -0.89561065830778      0.44982588466381
