5
Coordinates from ORCA-job orca E -4336.127622454808
  Pu  0.16813816909585     -0.91086231734407      0.20380416343044
  Si  2.39081575151433      0.91462858680969      0.00150181639578
  Cl  1.00165988880714     -3.34581937842479      0.86576421387587
  Cl  -1.04948587139141     -1.12470664574333     -2.14913013079133
  Br  -1.81663793802591     -0.18028024529750      2.15011993708924
