4
Coordinates from ORCA-job orca E -4082.498344789915
  Lr  0.25814524449561      0.27741156466166     -0.25657656437566
  Sn  -1.32015070735481     -1.76358572956595     -2.14486580405429
  Cl  -1.02689339449365      2.40667938112457      0.44120253199006
  Se  2.68538885735285     -0.09861521622028      0.52363983643989
