48
Coordinates from ORCA-job orca E -1485.586217490388
  La  -0.38038471627167      0.45903601175772     -0.14366002671690
  N   -1.89148957360775      2.66723469030713     -1.50074359794626
  O   -2.43638359688867      3.51557017578835     -2.14663968199976
  O   -0.86429457275597      2.90065245008408     -0.79088608737489
  O   -2.30779036674986      1.45461473107658     -1.49024227035317
  C   1.63171160984041     -2.32233384595667      0.66166871538951
  C   3.01434346366325     -2.78894621139751      1.08660661634442
  C   3.56408501077495     -1.56034648077529      1.81063341714603
  C   3.04223488359419     -0.43218944783467      0.93904197948489
  O   1.75632282037508     -0.88947112038440      0.47043347884986
  H   0.88692578065270     -2.48955114038758      1.44194278403575
  H   1.26858582398449     -2.75085214446820     -0.26853315709531
  H   3.62551174135910     -3.01859738715161      0.21237587691374
  H   2.96797654209001     -3.67418049097936      1.71737096895158
  H   4.64952509308743     -1.55322088586647      1.88719863289903
  H   3.14246407890658     -1.48625794383043      2.81440545862436
  H   3.68311142958242     -0.26309882296021      0.07038716503303
  H   2.88888935264383      0.50481374587817      1.47123643580020
  F   -0.72865664979929     -1.46659846708283     -1.16657010057714
  C   2.10235578524298     -1.08376780647666      6.16138061314490
  C   2.44926268756661      0.14324771924897      5.61018983597377
  C   1.78766555985280      0.60739554276278      4.48420304639432
  C   0.77540646934118     -0.15494693416883      3.91146027203060
  C   0.42012194739414     -1.37708415574222      4.47113901448220
  C   1.08680342173440     -1.84244468665988      5.59412735896024
  C   0.11539765449946      0.30824370529109      2.65311913474151
  O   -0.82388422456642     -0.38830752121700      2.15980500337847
  O   0.55858568616926      1.33433055356111      2.06569386979959
  H   2.62210266691955     -1.44748780682798      7.03786744905002
  H   3.23538843472283      0.73553559292023      6.05869249898478
  H   2.04356301081730      1.55643364394731      4.03375354831389
  H   -0.37490498775827     -1.94848624777491      4.01251455863905
  H   0.81478634524889     -2.79475798910378      6.02897211110538
  C   -1.33825523032475     -0.96050612063257     -6.49621995539795
  C   -0.04964150663467     -1.47559349043232     -6.47680919525429
  C   0.74633521253787     -1.29426355777443     -5.35831382218294
  C   0.25456951213943     -0.58755186373448     -4.26281089891186
  C   -1.03192001132651     -0.05874596569362     -4.29009211703716
  C   -1.82764131738420     -0.25511390762012     -5.40546879386533
  C   1.08337867763337     -0.37283533424415     -3.05374107968005
  O   0.96138706573176      0.59183179062881     -2.31848637113492
  O   2.02575675779642     -1.27122197627624     -2.77834869690948
  H   -1.96197950074314     -1.10654936790259     -7.36761506419766
  H   0.33652578355036     -2.01084117239928     -7.33282969291299
  H   1.76305157965920     -1.66944260738191     -5.36708803850009
  H   -1.41632751484991      0.48181364680478     -3.43708865269242
  H   -2.83187057699592      0.14422385804047     -5.41993565116217
  H   1.91119245754405     -2.04518495695892     -3.34109689256828
