4
Coordinates from ORCA-job orca E -1093.653916415433
  Tm  -0.51628935922320      0.55645296895931      0.19415368011272
  Li  0.45596952430915     -1.89522858400192     -1.32589119290256
  H   -0.23266537997030      2.42524762908663      0.98597738888816
  H   0.88947521488436     -0.26458201404401     -1.29083987609833
