6
Coordinates from ORCA-job orca E -13650.885064818884
  Es  -0.12251438258643     -0.23626453142343     -0.01164414510497
  Br  0.75053296823882      0.42771562718503      2.52396880175042
  Br  0.01125234554673      0.95170427660402     -2.50366572748012
  Br  -1.39797576048276     -2.48731498477480     -0.04332091745263
  Br  2.58739261976796     -0.56093996743212      0.47034563362558
  Br  -1.82867779048433      1.90509957984131     -0.43567364533828
