23
Coordinates from ORCA-job orca E -4986.412065869772
  Yb  -0.19821696542425      0.80064424428990      1.08535909403933
  O   -0.02858943884024      1.11848266080913      3.43589360887755
  H   0.48486968316338      1.93624190187230      3.51466131062918
  H   -0.19421434454144      0.78588584299498      4.32142115069759
  Br  1.25821580888325      3.06217117720639      1.07969293808291
  C   3.86693081463350     -0.00050108961528      0.55389871622529
  P   2.60737813249610     -0.45208823751480     -0.63173351061419
  O   1.22827227711692     -0.51098016281919      0.01802668311646
  C   3.03560331708953     -2.04482448948566     -1.32218388934026
  C   2.65646634142000      0.75733297713117     -1.94738111898158
  H   3.88376900182558     -0.72649111839386      1.36580461710264
  H   3.63308364420885      0.98744707010952      0.95211500352103
  H   4.84692073804285      0.02593745147589      0.07847155086905
  H   4.01957842806796     -2.00874684349122     -1.78797529498867
  H   2.29515952296415     -2.32593145023241     -2.06959910306762
  H   3.04043403742044     -2.79288745573187     -0.53086716844731
  H   3.64253410110400      0.77933931446287     -2.41020108674997
  H   2.43329295207184      1.73955633328432     -1.52925506286240
  H   1.91382368317396      0.50664320589618     -2.70394577327835
  F   -2.85556366000764     -1.18886334261209     -0.89324959019712
  P   -3.42362674072990     -0.12360878365353      0.08857621819273
  F   -2.38440992613635      1.05204015030360     -0.30062964420265
  F   -2.53131140800276     -0.54489935628629      1.36150035137638
