7
Coordinates from ORCA-job orca E -3492.194124577434
  Cf  0.00052647910056     -0.15168784885993     -0.14738941089387
  Cl  0.00009449717006      0.53546717030948      2.37193726045577
  Cl  -0.00761300359334      0.09831674460542     -2.55032679453783
  Cl  0.02727619132250     -2.55701876417949      0.07457046143847
  Cl  -0.02190644764699      2.37114994049318      0.53259618221246
  Cl  -2.43166188744226     -0.17345596698554     -0.13339451879558
  Cl  2.43329417108946     -0.12278127538312     -0.14800317987943
