34
Coordinates from ORCA-job orca E -2640.915751903274
  La  -0.50426980697918     -0.01955102614449     -0.13028602609968
  F   1.64165637767210     -2.30625988019172      2.96855228726405
  P   0.54909709847393     -1.22340257234387      3.17023673785720
  F   1.17067156243009     -0.11574140942672      2.18115297612542
  F   -0.46918397658504     -1.76410595713154      2.02795957805990
  C   1.49184302827320     -1.55720772185168     -0.61938014627914
  N   2.26873918382358     -2.14348133490902     -1.24708321622461
  S   -1.80339960797515      1.32043116963201      2.35404380973536
  C   -2.76626509735001      0.53508878252974      1.27551385163820
  N   -3.17131585673476     -0.07609101204947      0.36123185325087
  C   0.82145298505289     -1.74734414928112     -4.35770433096721
  O   -0.15464812495571     -1.11244740256031     -3.49161369511214
  P   -0.32739789565996      0.48778178776991     -3.48896199132503
  O   -1.59947985143398      0.49294247046688     -2.42471207462425
  C   -2.93646080254827      0.32485892510017     -2.96810095302769
  O   0.66073463367884      0.95199392380662     -2.22575446833131
  C   2.07294819613841      1.12684455593410     -2.53421740449182
  H   0.33567856853577     -2.59727346302348     -4.82573067673819
  H   1.65391502481513     -2.07511401646619     -3.74039145479690
  H   1.16076093833597     -1.05508044704201     -5.12879059136987
  H   -3.62185133397261      0.40151560384674     -2.13189943210443
  H   -3.02179568369980     -0.65298139931418     -3.43790983448570
  H   -3.13063972450898      1.11157222222773     -3.69341452385965
  H   2.48100277361212      1.79998227626471     -1.78755430331625
  H   2.17181290306907      1.57961712480756     -3.51994970953633
  H   2.57272700218553      0.16311950146138     -2.48516042256229
  F   0.78228602914111      4.09773536203085     -1.10162042122207
  P   -0.02026744315425      3.67149586558892      0.16755849489130
  F   0.85627556021114      2.34146050478733      0.47743373032358
  F   -1.15599431877887      2.84141135355203     -0.59255342339741
  N   -1.44333215821341     -2.35551340206278     -0.85718381836428
  H   -0.98967186479208     -3.11645579119740     -0.36074460214918
  H   -1.21155325900610     -2.48412462449711     -1.83872805691139
  H   -2.44637505910062     -2.46567582031351     -0.74723774184863
