4
Coordinates from ORCA-job orca E -1841.431461971346
  No  0.83758698690417      0.45286666780935     -0.66260185031156
  I   -1.64429828626132     -0.95646018114095     -1.62214497725608
  I   -1.71431769691823      1.88264401361231      0.09530012873736
  I   3.11751899627538     -0.55716050028072      0.75284669883028
