5
Coordinates from ORCA-job orca E -994.094455634682
  Am  0.16123862731296     -0.73345503279817      0.35074715924437
  F   1.89558785117228      0.13842554782459     -0.18530285189029
  F   0.86236832988360     -2.55020528201706      0.81198482629023
  F   -0.74859441655552     -0.86559226144965     -1.42599613236619
  F   -1.47611039181332     -0.63621297155971      1.52062699872189
