5
Coordinates from ORCA-job orca E -477.230179273966
  Ce  0.14115987959668     -0.92880224059948      0.21504729955844
  H   1.63239162908672      0.35011162649937      0.12516891370644
  H   0.82396933621509     -2.70720734966399      0.71293239994073
  H   -0.74050478389085     -1.03424429479745     -1.54133614037334
  H   -1.16252606100764     -0.32689774143845      1.56024752716774
