33
Coordinates from ORCA-job orca E -2091.193530799197
  Nd  0.06256639560785      0.40058303037336     -0.39836169391239
  C   3.57265060216881     -6.23808822281225      0.04494464031215
  C   2.64216408990434     -5.81138102415968     -0.86896404387399
  C   2.28189159957771     -4.42440123237262     -0.94343467247063
  C   2.90054303260003     -3.46029253831772     -0.12415186306037
  C   3.82559972106014     -3.88775124221661      0.79471318158363
  C   4.16671988790180     -5.29240995010376      0.88324016924580
  C   2.48331253250820     -2.02853782914653     -0.24914918912095
  O   1.36056858111150     -1.71856418234606     -0.64036381776459
  O   3.31622421884824     -1.06953162585572      0.05754248795078
  H   3.84877788376302     -7.28112244986516      0.11868413172711
  H   2.16179445729027     -6.50784027000636     -1.54414977641777
  H   1.51916842324924     -4.11925114204195     -1.64891667848124
  H   4.30478603717306     -3.21366673613619      1.49539180270342
  H   4.90511183161244     -5.59610518756386      1.61587574909607
  H   4.22353896957317     -1.33998805699672      0.25937233193419
  C   -4.43955914218374     -0.06138649907642      0.35385516946887
  P   -3.51280433137065      1.34455734048661     -0.22085938378882
  O   -2.02595802933384      0.89934169701019     -0.51230707949173
  C   -4.23248276247660      1.97418279188782     -1.71966534038696
  C   -3.50206849934971      2.60835023996316      1.03171480243854
  H   -4.45006004085423     -0.84230810298360     -0.40551549893945
  H   -5.46811476759673      0.24414286396853      0.55143079458358
  H   -4.00860027776098     -0.44487929483193      1.27818470999669
  H   -5.25891695939407      2.28634564127547     -1.52090297142496
  H   -4.24482370040030      1.20047620700329     -2.48635526042961
  H   -3.66995866712352      2.83638066731562     -2.07591139195971
  H   -4.52837793769773      2.90252583801781      1.25647061395195
  H   -2.96148444352797      3.48624826518162      0.67923046572823
  H   -3.04016028029369      2.23006961138263      1.94356221016021
  Cl  0.60889831635614      0.42990991329921      2.00189875951930
  C   1.47749636278454      2.81806341935890     -0.48928734935204
  O   2.03835689627329      3.77492806030911     -0.40191600952530
