9
Coordinates from ORCA-job orca E -3634.394626433770
  Eu  -0.08782004297191      0.53839160641332      0.89820269971179
  Br  -0.33929039703623      0.37554630906903      3.61350504657355
  N   1.64079122664482     -0.57042250036366      0.08991746262689
  N   2.58757021559212     -1.17454001709040     -0.32408379165567
  N   3.48284398139701     -1.74709351275658     -0.71614481588354
  C   -2.14683577252503     -0.38943697978846     -0.11171320084284
  N   -3.09648009413633     -0.84227369379579     -0.59501723626455
  C   0.29012540151669      2.86088012323404      0.14060631859412
  N   0.47089548151883      3.94994866507850     -0.20807248285978
