6
Coordinates from ORCA-job orca E -8939.933702633181
  Lr  0.32390224265949      0.43150678932712     -0.42371172570376
  K   1.12176034461906     -0.26948847452392      3.21473213456285
  Si  -0.27783408762254      2.12601325616748     -2.57337402166670
  As  -1.29450441024928     -1.66391480626740      1.02851950574661
  Br  2.33659757317896     -1.21639145474250      0.45051811062725
  As  -2.20991166258569      0.59227469003923     -1.69667400356625
