5
Coordinates from ORCA-job orca E -1901.161781563787
  Eu  0.17222632846675     -0.55023220874705      0.48095364838280
  I   2.49155888834471      1.09803789206411      0.12654956494630
  I   0.70874922284055     -3.51103325398737      0.22411767975602
  I   -0.77487387134106     -1.79785482782890     -2.10535963238782
  I   -1.90317056831092      0.11404239849924      2.34579873930271
