5
Coordinates from ORCA-job orca E -1632.077252254449
  Pa  0.14300661444147     -0.92711299903369      0.21266003445488
  I   2.31656300393147      0.93402735094242      0.08003989777728
  I   1.13099421287632     -3.51310319689340      0.94704255364940
  I   -1.14092342568779     -1.07878679736495     -2.34302208961318
  I   -1.75515040556147     -0.06206435765037      2.17533960373162
