4
Coordinates from ORCA-job orca E -1160.218834047990
  Yb  0.16021381391754      0.21374347077669     -0.38411216751861
  H   -0.78518397326248     -1.11434182353871     -1.44765942914848
  H   -0.77561053552382      1.82653290303413      0.18991981898267
  H   1.99707069486875     -0.10404455027210      0.20525177768441
