4
Coordinates from ORCA-job orca E -1172.113419212144
  Tm  1.25364116830134      0.22603821120135      1.92535071137328
  Li  -1.68202540667009      0.08175651749627     -2.16487711209439
  B   0.00784805111150      0.25244077484846     -0.92231637197062
  N   1.01320115689860      0.32221773036943     -0.13405536430310
