6
Coordinates from ORCA-job orca E -1017.132585451797
  Lr  -0.64538795243535     -0.80534013857284     -0.14359938414338
  Li  0.85648241995100      0.98653284359329      1.70286419083791
  H   -0.36854924261101      1.25419697778335     -1.20533680181394
  H   -0.85071848817975     -2.75638634808550     -0.41546266077375
  H   1.23237110157719     -0.22656899902899      0.51181055791377
  H   -0.22418783830208      1.54756566431070     -0.45026590202062
