27
Coordinates from ORCA-job orca E -3287.810250191521
  Lu  -0.07518209499028      0.57740689261255     -0.83930725758500
  C   -1.07146773224648      2.12348829295801      5.97772937103286
  C   0.14733864376737      2.40692600037138      5.37399091285062
  C   0.34712522560118      2.10145445545315      4.03525858846229
  C   -0.66945829836671      1.51150886907897      3.29463315175445
  C   -1.88807615958961      1.23019243396344      3.89902647849851
  C   -2.08957321199328      1.53520814393750      5.23776349351367
  C   -0.44409653345568      1.16900346612309      1.83813457621696
  O   -1.37720766458415      0.62186894307480      1.20140582226338
  O   0.67163501234104      1.42992258820821      1.33156621911237
  H   -1.22793044315457      2.36175454951297      7.02325550078668
  H   0.94212527459470      2.86689492074009      5.94867362359759
  H   1.28307226680787      2.30962105050898      3.53435524055601
  H   -2.65962207252862      0.77286128082761      3.29423054891082
  H   -3.04120797317337      1.31499376761852      5.70637656616356
  Cl  -0.96127344991277      2.86528604643999     -1.57715927394316
  N   0.83812284797448     -1.46038854545829      0.16500819798972
  H   0.47974779577708     -2.17349747094108     -0.48265148445799
  H   0.53569392170110     -1.67073833112759      1.10614831141618
  H   1.84893944597069     -1.43648346002015      0.12997086728397
  O   0.23740435658788     -0.62379709610796     -2.66919520008966
  S   -1.00809245082505     -1.55988456756770     -2.54943198158605
  O   -0.50957867207053     -2.87415816233414     -2.03675555360231
  O   -1.70005433244262     -0.84473207166940     -1.34545020697488
  S   5.04866628346264      1.24487261902315     -1.12023541633672
  C   3.40783993354048      1.10856274530574     -1.12844246950294
  N   2.24721008120722      1.00585263946799     -1.12809862633124
