7
Coordinates from ORCA-job orca E -1381.347953580980
  Es  0.00000477850736     -0.00000514471830     -0.00001632728303
  F   0.00000880802618     -0.00003312344415      1.97051325038283
  F   -0.00001466005804      0.00004107625884     -1.97054496537406
  F   0.00001783155501     -1.97053366914407      0.00004186057225
  F   -0.00001897082088      1.97052495307233     -0.00002263541122
  F   -1.97052318054873      0.00001635503997      0.00000252638320
  F   1.97053539333910     -0.00002044706463      0.00001629073004
