4
Coordinates from ORCA-job orca E -555.429673205118
  Pu  -0.05201253812272     -0.08017052832636      0.14133857923777
  H   -0.64842766770124     -0.93404402670524     -1.57575195270407
  H   -0.65285171224042      1.83171212399704     -0.00466627838657
  H   1.94978191806438      0.00439243103456      0.00247965185287
