38
Coordinates from ORCA-job orca E -2823.929583690121
  Lu  -0.17191792153749      0.51072371826444      0.98149644218009
  C   2.77394066638104     -0.99874110505546     -2.17100865229230
  C   1.90553371680228     -0.85603417901327     -1.10096434267587
  N   1.26581460966725      0.29963640732631     -0.88770646473852
  C   1.50145781312467      1.30259388291584     -1.74135065023190
  C   2.37440257814601      1.13746174160569     -2.80464767594538
  N   3.00842989954278     -0.00811394321105     -3.02268346661913
  H   3.29009556765222     -1.93441700784288     -2.33965116092966
  H   1.71577882644578     -1.66176064190883     -0.40475873442794
  H   0.98993223779775      2.23957434602051     -1.56522983360807
  H   2.56352912181604      1.95147324657417     -3.49153823056789
  N   0.63908249125512      3.05539996454973      1.44823185055094
  O   1.09102834179396      2.01461130629271      2.05937371704958
  O   -0.26262640414050      2.78766709541631      0.56562243028015
  O   1.01915792767239      4.15053303473590      1.67189274011526
  C   -0.69805245289939     -3.63907307442987      1.48780484571464
  C   0.31918672218984     -2.66467493724954      2.04719353548535
  O   0.05493190891850     -1.34868959581370      1.62034505255986
  H   -0.49211347552082     -4.65257010589057      1.83036469707684
  H   -0.66977634289925     -3.64132438202782      0.39643187071578
  H   -1.70508240045873     -3.37063885264137      1.81137776566326
  H   1.32812541969738     -2.95157292549815      1.73453468084650
  H   0.31365075200785     -2.70130113648833      3.14074735302973
  F   -2.32728350129961      0.58676466758802      5.09286440348432
  P   -1.64631971698668     -0.38584502411069      4.08725587523919
  F   -0.15904121777541     -0.14017600149026      4.49283158896368
  F   -1.63792163372857      0.70136578192428      2.83322401172634
  C   -4.48699030120718      0.17594661983425     -1.75152845859514
  C   -3.82220179202012     -0.95696305926055     -1.30616635129515
  C   -2.66337870445025     -0.79902509208699     -0.57429051139853
  N   -2.15369430098634      0.40884100647333     -0.27939501038391
  C   -2.80263348073482      1.50194581484827     -0.71225161868101
  C   -3.96834523702909      1.42514816868642     -1.44851153651696
  H   -5.39842760321428      0.08570752275036     -2.32592262182436
  H   -4.19341402008796     -1.94846190353239     -1.51814875112817
  H   -2.11505029060101     -1.65466245414500     -0.19988361899271
  H   -2.36626486920322      2.45738749809254     -0.45233023186559
  H   -4.45654293413003      2.33156359779772     -1.77372493796338
