4
Coordinates from ORCA-job orca E -875.851967958976
  Nd  0.90001337565326     -0.21112018747318      0.35884345601349
  Be  -1.47853536336942     -0.38200322996667     -1.75368850596343
  Mg  -1.82660807180870      2.02524769915603     -0.48043996931177
  F   3.00162005952487     -0.61023428171620      0.43868501926173
