4
Coordinates from ORCA-job orca E -2465.931964303041
  Tm  0.16001370089163      0.21651634291887     -0.39231061247937
  Cl  -0.99652637822856     -1.42106801560853     -1.73293201620084
  Cl  -0.99061890462059      2.20547259072438      0.34218827170715
  Cl  2.42362158195753     -0.17903091803472      0.34645435697307
