39
Coordinates from ORCA-job orca E -2591.222169877965
  Gd  -0.70038593444088      0.57255731146556      0.02162142055703
  C   0.23329694093456      0.92409058679212      3.09878594226000
  O   0.54219514526962      0.77316399901689      1.75098188424756
  H   -0.84886142322409      0.89140465546376      3.28331201948710
  H   0.59902535558051      1.88610111659582      3.49126225613649
  H   0.69769043867670      0.13444492440551      3.70729819846165
  C   2.41387337157339      3.49488974503345     -0.99743806033971
  P   0.64408278670891      3.18627703308762     -0.64455654019071
  C   -0.18771923359449      4.24174057308432     -1.88324411191768
  C   0.38986142944172      4.15210405375514      0.88374683549727
  H   2.64670208954562      4.56159625484757     -1.02445491976851
  H   2.67419185949145      3.04261771830502     -1.95403138814084
  H   3.01520542737648      3.01404034753892     -0.22620426601974
  H   0.15772709640160      5.27698168349984     -1.83999647930778
  H   -1.25770123290599      4.19549261126899     -1.68159777932714
  H   -0.00971716300282      3.84317240459165     -2.88202695877667
  H   0.72005222025532      5.18809540835139      0.77914850731472
  H   0.93192593250140      3.66776285654415      1.69578722309483
  H   -0.67387291880632      4.12045076053248      1.12014339184334
  C   -2.95717339689006     -2.70228072854036      1.05111774320478
  P   -1.49028454279052     -2.37388503772244      0.01465996575243
  C   -2.13765584180554     -2.70795960075902     -1.65939182002818
  C   -0.45982039641077     -3.86064482239955      0.30571606856897
  H   -3.38959067519363     -3.68278189917271      0.83895698755931
  H   -3.68353394425003     -1.91542462639975      0.85359527226953
  H   -2.68300337507889     -2.64140016668478      2.10407412825111
  H   -2.65462082489827     -3.66969658862698     -1.69945399533307
  H   -1.30915908887106     -2.71599231326449     -2.36810530490116
  H   -2.82467432628892     -1.90312817325159     -1.91881161105458
  H   -1.03139478311750     -4.78015408938187      0.16049492871631
  H   -0.06398172767918     -3.84163575406301      1.32126928655829
  H   0.37756905052392     -3.84326376256230     -0.39253021715111
  N   0.65641627111778     -0.32255452327506     -1.77248678093612
  N   1.02176774316498     -1.37728310476154     -2.17412326458825
  N   1.37375029411048     -2.39725789823019     -2.57294952633258
  O   -2.28942712272604      2.41290269787059     -0.05439346527065
  S   -3.33382995088210      1.31893882032555      0.26979241636393
  O   -3.11290228562936      0.31382327313883     -0.85576809558724
  O   -2.68252326418786      0.62149425358035      1.47300010882704
