5
Coordinates from ORCA-job orca E -2539.766156816634
  No  0.15850616441501     -0.94056181408233      0.21371288236618
  S   1.87051950730858      0.89274820722417     -0.90141752436655
  S   0.35913357840734     -3.23853130853152      1.70474085438188
  S   -0.31064414326060     -0.36159086549847     -2.42752201066422
  S   -1.38302510687034     -0.99910421911186      2.48254579828270
