39
Coordinates from ORCA-job orca E -2698.379990052909
  Yb  -1.21916165468376     -0.71757964344851      1.47524855727506
  C   0.27727647576641      5.66600778750438     -1.05717611995953
  C   0.15424675950536      4.59630630984440     -1.93527775955625
  C   -0.32250731781538      3.37582409883654     -1.47993013823030
  C   -0.67665776042827      3.21671067010533     -0.14583029936692
  C   -0.55902320020384      4.28981685828747      0.72885165504780
  C   -0.08331408195357      5.51220603822995      0.27540274155779
  C   -1.12430704595132      1.86198213077683      0.36189826396059
  O   -1.18355366333134      0.91834588877246     -0.46073975755172
  O   -1.34904919603658      1.74864174024837      1.59829215774387
  H   0.65054714596118      6.61877344940146     -1.41152238551930
  H   0.43200146964328      4.71562875693727     -2.97507162688392
  H   -0.42090962609070      2.52249919538326     -2.13712537073870
  H   -0.84087503135252      4.13931947404833      1.76219404690281
  H   0.00724792215065      6.34623876755353      0.95996663944923
  N   1.35155418211389      0.05949749373815      1.09200889570666
  C   1.70327573921148      1.29781318328972      1.43065231703219
  C   2.54315526916104      2.08760318983216      0.66320613885137
  C   3.03064729621883      1.56235613010493     -0.52157794005049
  C   2.68422729379560      0.27072670758123     -0.87555037012798
  C   1.84818961961299     -0.45834697873002     -0.03587586782399
  C   1.45503109869949     -1.86223960426977     -0.34426839373860
  C   2.25622150586037     -2.69419617314520     -1.11398594496227
  C   1.84681391522505     -4.00375344947992     -1.31803185128096
  C   0.67002102091785     -4.43905798666782     -0.73874322928116
  C   -0.07719745589570     -3.54775570976560      0.02320041734895
  N   0.31078563990659     -2.28371201194428      0.19993635124088
  H   1.25929626468650      1.68294298891672      2.33961342105549
  H   2.77312784066041      3.09699180552655      0.97285434263262
  H   3.65939609532987      2.15734326184793     -1.17085925623797
  H   3.02715850705097     -0.15627249614541     -1.80673874023247
  H   3.19264103101635     -2.33824052037727     -1.51896863305258
  H   2.45510829827812     -4.67706109465647     -1.90858681776768
  H   0.32566519267801     -5.45672861763484     -0.85410222105044
  H   -0.98796189429460     -3.84694233254778      0.54257664244146
  O   -1.58001109116027     -2.07665074169521      3.26100507504777
  S   -2.69678361546599     -2.96076595880467      2.61081605551570
  O   -2.06933364910466     -4.26746127793766      2.25866011041715
  O   -2.91068929968190     -2.20431132951658      1.25287889418577
