4
Coordinates from ORCA-job orca E -3170.334271924176
  Np  -0.67590512502833      0.74868399621128      0.03435172285026
  Li  -0.02815723669993     -1.75427951530523     -1.66494563697643
  O   -0.45885166898818      2.38626619972718      0.78524413260455
  Br  1.75940403071644     -0.55878068063323     -0.59125021847838
