31
Coordinates from ORCA-job orca E -1976.284563560736
  Tm  -0.22191458354555     -0.43735706784922      0.10248921648358
  N   2.43558697384715     -0.76595028341496      0.46121817972045
  O   3.59601347956640     -0.91952964689405      0.57625685298234
  O   1.73317320061513     -1.35344323012570     -0.45976347822091
  O   1.73469972889728     -0.00025653363595      1.22349810308406
  N   -0.89336899741020      1.47153429890638      1.42585310150875
  C   -0.77825095453315      2.71870413481310      0.62319998724545
  C   -1.27121686605997      2.46163971799444     -0.78771285528735
  N   -0.41612799716717      1.42961129411567     -1.43408512039412
  H   -1.84996646627799      1.36319221653118      1.75424378061236
  H   -0.32464338013662      1.54980921787512      2.26472369077080
  H   0.27373209592565      3.00626848317821      0.60702980483558
  H   -1.33597363849327      3.53814328580416      1.07470666939299
  H   -1.28164514018763      3.38886780769174     -1.35933402578360
  H   -2.29150207975344      2.07520779361980     -0.76621647335641
  H   0.46049408563831      1.85201363297274     -1.72832910236247
  H   -0.86842659741947      1.10358685054529     -2.28426832892356
  C   -5.86728595844142     -4.22815516221218     -0.20601889884979
  C   -5.54116335345355     -3.41445622849639     -1.28453814529731
  C   -4.42619210897538     -2.59907236804915     -1.21835928557077
  C   -3.64038938481025     -2.60317986339135     -0.06649604186526
  C   -3.96752453441980     -3.41968821104732      1.01556499533500
  C   -5.08436330547447     -4.23209008708639      0.94197183575883
  C   -2.44798284384605     -1.75771142408139      0.00197639328917
  O   -2.10334327591459     -1.00072026721999     -0.97449541307139
  O   -1.69838580844559     -1.75667821139631      1.04708673129317
  H   -6.73801124347230     -4.86713437992354     -0.26207047455144
  H   -6.15494548097697     -3.42208021054740     -2.17393915558875
  H   -4.15122912622131     -1.96440288677614     -2.04854218024401
  H   -3.34175261763909     -3.41271530271390      1.89641869476616
  H   -5.34479382141432     -4.87095736918637      1.77373094228854
