5
Coordinates from ORCA-job orca E -777.115829174246
  U   0.13841691709321     -0.92838334494966      0.21536251956468
  O   1.53256976941486      0.07712696733052      0.75959518389691
  O   1.17355040872525     -2.38549980998219     -0.02369972720309
  O   -1.09157913497479     -1.50981499044025     -0.96770186393691
  O   -1.05846796025853      0.09953117804158      1.08850388767841
