25
Coordinates from ORCA-job orca E -1165.147462869822
  Nd  -0.37775292550100     -1.09788059070693      1.62306094873163
  N   2.01232886102336     -0.13439918874647      1.39577514080907
  C   2.52337790963376      0.50846314149456      0.13082692523281
  C   1.93057511251333      1.89866106467589     -0.11489885246869
  N   0.55227307494516      1.85614645354760     -0.52783356767393
  C   -0.49664208940787      2.70726090309127     -0.03384017874473
  C   -1.80860423020531      1.95846361324007      0.21519554279681
  N   -1.76718627979804      1.09076105659695      1.44779427540233
  H   2.28717995723882      0.46902679203314      2.17500773866731
  H   2.62003789453912     -0.94888988089682      1.53380015018913
  H   2.31805571429461     -0.15552908611813     -0.70752513276907
  H   3.60435557703295      0.62784330900878      0.19680159755876
  H   2.49677277157098      2.34428091635302     -0.95107083733870
  H   2.03264784727399      2.56814811796793      0.73890025407906
  H   0.31821745100003      1.23528289439665     -1.30743795802399
  H   -0.69659128800650      3.44976200882184     -0.82716367439850
  H   -0.13713576625386      3.25803558643515      0.83543265780214
  H   -2.07084027488519      1.33647368942916     -0.63937053336075
  H   -2.58949250707628      2.70973571265632      0.32807513844840
  H   -2.73914748044313      0.79292855645270      1.58054252713530
  H   -1.62610151331781      1.71192040771587      2.24881766407087
  N   -0.49449016539615     -2.14623638480641     -0.91266100305175
  O   -0.55816645557486     -2.55968211853460     -1.98761213480946
  O   -0.45964484939506     -2.84442090709888      0.17927235246115
  O   -0.44422634580508     -0.84295606700878     -0.61848904074523
