16
Coordinates from ORCA-job orca E -2618.335244429677
  Dy  -0.24028192577051     -0.45454155217305      0.75814652931991
  Cl  1.37463415207710     -0.75772387922288      2.65148838043713
  Cl  -1.50287438799307      1.72036200953299      0.38878918173037
  C   -2.34233832750087     -3.08534177023166      0.44210014554391
  O   -1.41443218701608     -2.03906882698119      0.45658831320492
  H   -2.17964955089456     -3.73089540149041     -0.42560846201755
  H   -3.36361871399807     -2.70070416345750      0.38913580542893
  H   -2.25334101086816     -3.69976655878291      1.34126058076303
  F   1.61881525360760      1.49328659082101      0.06247886096290
  P   1.37786827374302      3.09393037934952      0.11074066552892
  F   2.89587994011427      3.46091942181008     -0.12134363446810
  F   0.92347627783557      3.23073958944810     -1.38851405430247
  N   1.38692447782997     -1.14408989460912     -0.99580018708800
  H   1.13296325645418     -2.01391154355311     -1.45006837375397
  H   2.26022146462368     -1.30200082529302     -0.50075710909946
  H   1.57935300775594     -0.45939357516677     -1.71853664219046
