38
Coordinates from ORCA-job orca E -2878.572923623224
  La  -0.18975927441435     -0.08957907029747     -0.17809008169273
  C   0.30292531704802     -0.63043800699982      4.58568166750455
  P   0.24651893510189      0.79726082635738      3.49888927840205
  O   -0.44717341992156      0.45576921095933      2.20716094459375
  C   1.93332865132499      1.35616074251809      3.28287646124542
  C   -0.62166888457575      2.10722204747642      4.36242714848176
  H   0.85288535387942     -1.41857440728381      4.07041162489313
  H   -0.71385107367573     -0.97336361101238      4.77304159743598
  H   0.79135209011679     -0.39051847324935      5.52967353186621
  H   2.39357725859915      1.54242471109768      4.25379249784516
  H   1.92832948525822      2.28116457507346      2.70462234686147
  H   2.49143018712629      0.58406592845005      2.75304790844276
  H   -0.15020721156869      2.32279275887060      5.32113633302067
  H   -1.65653703084225      1.80614919575882      4.51945874710729
  H   -0.59258315664651      2.99860472558772      3.73358343123370
  S   0.63016647133231      4.59370263262389      1.60861937621606
  C   0.46849168784545      3.30362542085130      0.63104556321108
  N   0.36049764212469      2.35653865411966     -0.05209087915264
  I   2.00030425527329     -2.06027343236733      1.11771889459301
  F   -0.79312818871302     -4.41563109504180     -1.20310625218467
  P   -0.33377418060157     -3.01038112416871     -1.75584436325813
  F   -1.24217076725513     -2.98925007359416     -3.03696528460341
  F   0.98988475686949     -3.49012233929474     -2.45420339500617
  Cl  -2.78462400793477     -0.83545271548941     -0.36759101643363
  C   5.22784349465393     -1.18453274212051     -4.26552876046389
  C   4.48847557500297     -0.51717028939547     -5.23450151388097
  C   3.17928323068426     -0.14658649308160     -4.97273986910580
  C   2.59982188314717     -0.43554972877884     -3.74178409922628
  C   3.34194644645457     -1.10332100251572     -2.77532185306379
  C   4.65245809627784     -1.47761683429554     -3.03762607621711
  C   1.16824712769031     -0.01166634998898     -3.49619118993737
  O   0.52870829287728      0.52345133074407     -4.38065705763673
  O   0.71117326396991     -0.27108196374774     -2.30395141111730
  H   6.25082502422946     -1.47579562811373     -4.46881695813156
  H   4.93471630937344     -0.28710672571537     -6.19371771894620
  H   2.57992853503281      0.37142686697548     -5.70858806269787
  H   2.89356034897344     -1.33497412526158     -1.81949259030016
  H   5.22079747588144     -1.99937339564991     -2.27857891989766
