30
Coordinates from ORCA-job orca E -1926.196884701262
  Tb  -0.55906259690684      1.77411631940013      0.54141067042617
  N   0.20493787566486      0.39214032090088      2.50575750098523
  C   1.48699812994206     -0.30773147526972      2.24181780018306
  C   1.53087948038284     -0.78821828561247      0.80424085239286
  N   1.43133311444862      0.37176089966275     -0.12163132275363
  H   0.26979673548922      0.90846554045344      3.37835990427812
  H   -0.53730603251873     -0.28869305524760      2.65354710170903
  H   1.63381109170622     -1.15071700024326      2.91657791211035
  H   2.29793765429730      0.39903092627533      2.42258661801657
  H   0.68648183353473     -1.44998291516576      0.60187758770962
  H   2.44134278725708     -1.36161240251880      0.63178653404729
  H   1.35880222334132      0.03397703893720     -1.07795945867045
  H   2.30099090336231      0.89920007065057     -0.09164621901677
  S   0.52336806709586      6.50620435137965      1.32158260886183
  C   0.20644424609757      4.99435948383746      1.06440619643898
  N   -0.02907692410524      3.83366681292962      0.86621809294471
  C   -6.78082864341586     -0.21696490061065     -1.47010122254128
  C   -5.80373173375607      0.06018752792975     -2.41846712158384
  C   -4.52420942317393      0.39141118247257     -2.01122474067766
  C   -4.22960692289258      0.44282665980638     -0.64946269669558
  C   -5.20988832438825      0.16512079952083      0.30230559459869
  C   -6.48677602537181     -0.16616842635544     -0.11284007658044
  C   -2.88377134584904      0.82013788557582     -0.21516929514750
  O   -1.96633305743961      1.10125470808325     -1.06981383925422
  O   -2.58369275097375      0.90414949160946      1.02981631240785
  H   -7.78152476125423     -0.47161159103673     -1.79157391712991
  H   -6.04391493453569      0.02203062085931     -3.47138888020115
  H   -3.75185598469594      0.61779927639165     -2.73219329499773
  H   -4.96287366701309      0.21858943084011      1.35287794600969
  H   -7.25507101432895     -0.37992929545588      0.61650285213005
