4
Coordinates from ORCA-job orca E -832.865627734729
  Tb  0.06829619191592      1.09174726729235     -0.38435861241811
  Li  0.28211523360494     -1.77576498592878     -1.86129975237604
  H   -0.19625767322737      2.57339163112386      1.07539235793110
  H   0.44233624770651     -1.06748391248743     -0.26633399313696
