30
Coordinates from ORCA-job orca E -1731.214167195099
  La  0.34223742473685     -0.18759886007049      0.53403993717408
  C   -3.69574278681982      5.68741866724473      0.64539238307799
  C   -2.35313345212967      5.76474278244637      0.99195101004420
  C   -1.56290989050289      4.62608846452641      0.96049017170962
  C   -2.11520282036601      3.40908870534825      0.58140198800096
  C   -3.45836868182726      3.33146565996437      0.23594187277744
  C   -4.24830187441253      4.47058870471158      0.26785584184185
  C   -1.25942365952427      2.17894219065895      0.54518620205909
  O   -1.78346989022506      1.08180758188757      0.19307715129191
  O   -0.04234313183235      2.27185003652875      0.85990821609384
  H   -4.31252293947136      6.57689800461507      0.67061266120384
  H   -1.92404507405598      6.71331478695049      1.28750194453669
  H   -0.51578502896453      4.65641896613358      1.22690371780188
  H   -3.86235801258697      2.37118291645099     -0.05232539814550
  H   -5.29505351672080      4.41122766491806     -0.00060560656212
  C   1.04913991568047     -3.72186991073214     -2.51509461004017
  C   0.18017730463752     -2.78236468869961     -1.83058056834763
  N   -0.47948620484688     -2.03490260240786     -1.26256998009003
  H   1.29588412782237     -3.32155762266413     -3.49514517329349
  H   0.56094673998251     -4.69067589420126     -2.59633211852139
  H   1.95512955186148     -3.79996736642550     -1.91526101533345
  S   2.98370489894984     -0.39033354412620      2.00528891293612
  C   2.80968581439455     -1.60842543307344      0.89369404444219
  N   2.50326246078727     -2.38812096937669      0.08143227347818
  S   -0.93867446591069     -2.37515953315534      2.22477190664555
  C   -0.85893874050412     -0.90787088593289      2.99562192222925
  N   -0.69898059308337      0.19645366017550      3.33700176111773
  N   1.33309774286547      0.40746215736075     -1.61466310220885
  N   1.57646441625068     -0.17671201263587     -2.62054194484616
  N   1.80421036581567     -0.74019162642009     -3.59145440107363
