21
Coordinates from ORCA-job orca E -2046.208673821413
  Eu  -0.21092360588666      0.56083579443594     -0.27384341936233
  N   -1.98513998784746     -1.18758595035808      1.17639247233781
  O   -2.72514525013289     -1.91398929222528      1.78421173358321
  O   -1.31815209733912     -1.58414369074960      0.16901087356354
  O   -1.80421620070832      0.02942957160322      1.50898986735419
  N   2.00686718290403     -0.30075568774731     -1.89062365555162
  O   2.95312927557129     -0.68275356966111     -2.52616451493724
  O   1.95160061714527      0.86831694392688     -1.39077414238995
  O   1.00019313068982     -1.04491721684391     -1.65917407365857
  C   2.31612066583757      0.68596817731746      1.90147129258928
  C   1.59875975058181      2.04808899694877      1.90370792630803
  O   2.06125006354402      2.94520706029642      2.57864195165593
  O   0.56080914478073      2.10787248323714      1.13458402391455
  N   1.41298603673008     -0.40683933314508      1.49406699939796
  H   2.77070089601826      0.52902077464878      2.87921280238516
  H   3.11363013159498      0.75965514616717      1.16149970273465
  H   0.82173002782585     -0.67486779672346      2.27335417732014
  H   1.93001080243129     -1.23260304087719      1.21922504839603
  S   -3.30483294836105      2.61026660500345     -3.81099377314074
  C   -2.32891315029525      1.98704891219613     -2.69378576914287
  N   -1.61505824313976      1.53348778674777     -1.87357531737673
