6
Coordinates from ORCA-job orca E -2324.830236039161
  Fm  -0.12435185021248     -0.21443197764271     -0.00897200465713
  I   0.71683694409128      0.43157363961458      2.76299011201356
  I   0.04953526155442      0.95590646497369     -2.72350271950031
  I   -1.44985065223957     -2.66626048051505     -0.07467280789650
  I   2.78942160335515     -0.58332835715587      0.44239760038748
  I   -1.98158130654881      2.07654071072536     -0.39823018034711
