6
Coordinates from ORCA-job orca E -3032.402189051813
  Cf  -0.16100549627465      0.01272683905209     -0.16465539063162
  Cl  0.61740794749460      0.01205349407302      2.33133960377955
  Cl  0.31937070899514      0.16812015418704     -2.52071207001097
  Cl  -1.46108904922171     -2.00088629239733     -0.09261830202511
  Cl  2.38801598184480     -0.02926759237838      0.36705995204304
  Cl  -1.70269009283816      1.83725339746355      0.07959620684511
