4
Coordinates from ORCA-job orca E -8807.392554526543
  Tm  0.15829692646304      0.21319832649025     -0.38522582974839
  Br  -1.06336366288344     -1.51746395909761     -1.82426109474481
  Br  -1.06061459026297      2.33324213816059      0.37679835042894
  Br  2.56217132668337     -0.20708650555324      0.39608857406427
