5
Coordinates from ORCA-job orca E -956.434282396759
  Cm  -1.28379182990666     -1.94682583992535      0.22125989473380
  Be  1.34128607466582     -1.38202384272588      1.40386985429479
  B   0.84177025530637     -0.83336615504762     -0.24115434893404
  C   -0.05199068744699     -1.35251497980390     -1.33150121532485
  Sb  -0.15278381261855      0.86769081750277      1.01958581523028
