5
Coordinates from ORCA-job orca E -1247.132070251515
  Lr  -0.91405860190911     -1.75924810105822      0.36844344028182
  Be  1.96679236589205     -0.40617950025196     -0.53790724809284
  O   1.23264274106242     -1.36156396162109      0.45588214052636
  O   0.34933334358343     -0.35928781353782     -1.07921658941367
  O   -1.94021984862880     -0.76076062353091      1.86485825669833
