5
Coordinates from ORCA-job orca E -3534.358372407752
  Nd  -0.90247890990238     -1.73658115041363      0.49163035362799
  Ge  2.00614835843779     -0.39666852463863     -0.72722797703646
  S   1.79879154030527     -1.54780155891754      1.16474119016747
  S   0.00978077454502     -0.26514514102072     -1.69919486371959
  F   -2.21775176338569     -0.70084362500948      1.84211129696058
