7
Coordinates from ORCA-job orca E -15917.703978687003
  U   0.00000145612458     -0.00000138268637     -0.00000149215146
  Br  0.00000378986989     -0.00000393220372      2.58918676030422
  Br  -0.00000255025219      0.00000242912367     -2.58919269141831
  Br  0.00000214431222     -2.58919142522921     -0.00000409716123
  Br  0.00000208829651      2.58918774289562      0.00000229233036
  Br  -2.58918791769129     -0.00000168795292      0.00000281945488
  Br  2.58919098934028     -0.00000174394708     -0.00000359135846
