5
Coordinates from ORCA-job orca E -2081.799999385675
  Md  0.23243222076458     -0.70467084724146     -0.17871324875084
  I   2.36403979837434      1.12531202812274      0.13354611843067
  I   0.73157901269703     -3.11531675733770      1.45900554144779
  I   -1.17477252704790     -1.18497553673210     -2.59022944181376
  I   -1.45878850478805     -0.76738888681146      2.24845103068615
