27
Coordinates from ORCA-job orca E -2055.042863188633
  Ce  -0.20171159630346      0.32033471062245      0.18866006519486
  C   2.77834072002989      2.83365059105414      0.54696913457010
  C   2.96002042309853      1.45235535005119     -0.05510959029073
  O   1.81339969204053      0.66158521538030      0.13197712299940
  H   3.67640888875598      3.43640066813343      0.39354249647194
  H   2.59140504202508      2.75440458702934      1.61868698717633
  H   1.92856293952334      3.34042878724552      0.08877502256732
  H   3.81353248727054      0.94031667757569      0.40281083893318
  H   3.16303918573135      1.53220382043635     -1.12809591374598
  Cl  -0.48073488421944     -0.77391183111327      2.56834711762610
  O   -1.01007631579376      2.26651058654561      0.89213172474160
  S   -1.30741354070651      2.96319053826846     -0.51170552328112
  O   -0.37416385140218      4.07231460624807     -0.66625634505136
  O   -0.76888794641630      1.74519741630591     -1.39254771532969
  C   -5.60181770786726     -0.34678322764937      0.16380882555629
  C   -4.85786068764103     -0.87969658555957     -0.87519466259255
  C   -3.47957699019154     -0.74131906460780     -0.84628985930277
  N   -2.84425173955012     -0.11256023057632      0.14263008524441
  C   -3.56279734279911      0.40316127542012      1.14157896258487
  C   -4.94265776917655      0.30641990918407      1.19256451066661
  H   -6.68028304749638     -0.43840420292248      0.17257481746584
  H   -5.32732323075729     -1.39830531499427     -1.69862417409986
  H   -2.85293358090041     -1.15107602719618     -1.62692630042472
  H   -3.00202952227012      0.91046473973992      1.91493525780646
  H   -5.48151221601059      0.73920579641715      2.02311516886834
  C   -0.48630465080977     -2.50057647177105     -2.01344707764459
  N   -0.36317275816321     -1.59901231926761     -1.27861097671026
