35
Coordinates from ORCA-job orca E -1968.961674015606
  Eu  0.07681199107333      0.99682042112779      0.81076107271638
  C   4.00824373322780      0.95636443913217      0.64003321713450
  P   2.68068843416847      0.71328902938269     -0.57785760495943
  C   3.16650296854001      1.70982558402182     -2.01481000236827
  C   2.87501190344403     -1.01355719731583     -1.10958665028607
  H   4.96865641022473      0.69137191116476      0.19681600281256
  H   3.84408441181090      0.32166981312980      1.51074631160080
  H   4.05275923758182      1.99615231959334      0.96219589988134
  H   4.16462465428774      1.41962804146799     -2.34343822765758
  H   3.17880582192121      2.76860845450178     -1.76025835781524
  H   2.47049648996454      1.55687787666594     -2.83831504858632
  H   3.89264576248078     -1.18034352396631     -1.46375737507063
  H   2.18435442926867     -1.24529782297079     -1.91961072809367
  H   2.68202229916359     -1.68560812773261     -0.27358161610915
  N   0.81283957623188     -0.30838950453152      3.15646318482284
  O   0.19626930114675      0.79827915464076      3.10437465609362
  O   0.95487774722937     -0.81259090891965      2.01222008348271
  C   -4.40719102743169      0.56023922705686     -0.61323982432053
  P   -3.04305141312773     -0.56947917342979     -0.42731457442118
  O   -1.75080325954099      0.22217576451516     -0.06550547529049
  C   -2.79903141597257     -1.45012020540275     -1.95625294145613
  C   -3.41380924623021     -1.73432164429575      0.86905961464603
  H   -4.58103722002437      1.09268274263142      0.32116494750811
  H   -5.30963437733231      0.00601613666621     -0.87265994344995
  H   -4.19367439277051      1.27523527493196     -1.40688835437716
  H   -3.70581026444488     -1.99869445786774     -2.21252510218621
  H   -1.97926800397460     -2.15993618284702     -1.85100082252629
  H   -2.57513496815477     -0.74820494373737     -2.75869630550595
  H   -4.31078018871820     -2.29913340919616      0.61330105285655
  H   -3.58844069551282     -1.20756412235639      1.80686314797323
  H   -2.58491618413647     -2.43093532278031      0.99347634778535
  N   -0.03868162872515      3.39483651399135      1.64701850104955
  H   0.02467984737275      3.34086698145337      2.66413990180020
  H   -0.89071317311455      3.91985529650205      1.45905159949629
  H   0.71660244007346      4.01758156477273      1.36571341282025
