5
Coordinates from ORCA-job orca E -681.216976116155
  Pa  -0.48426850756198     -0.86823011424044      0.66783271863729
  Be  1.94618677712791      0.31161694191618     -1.16699324995689
  O   0.26870932522249     -2.76216055017012      0.43351097127139
  O   0.56975310104929     -0.13271024270498     -0.90432345233973
  O   -1.60589069583771     -1.19555603480063      2.04203301238793
