33
Coordinates from ORCA-job orca E -2462.810566796598
  Tm  0.71291127495859     -1.23405555681771      1.14127212557042
  N   1.39785767851301     -0.80856484417123      3.73642722902082
  O   1.67410088069594     -0.63705037533687      4.86928326121049
  O   0.46042435276787     -1.61021763975921      3.35094595039705
  O   1.99382094993038     -0.21631221861673      2.75978055471805
  C   2.47162493186479      0.47617772439292     -2.11153596700312
  P   2.56896502561674      0.37244975000483     -0.29908767384035
  C   4.16300366297778     -0.44893751043605      0.00586692129292
  C   2.84292960243410      2.08182760452093      0.25098446793752
  H   3.35942930171467      0.96149492744161     -2.51668273296672
  H   1.59284336145145      1.04655325389346     -2.40966117335186
  H   2.39468776073059     -0.52686138332128     -2.52932226888370
  H   4.97167466663647      0.07297066476748     -0.50588821549670
  H   4.11798677722863     -1.47791296077103     -0.34950172875079
  H   4.36878060484744     -0.45852043445339      1.07587656952330
  H   3.71945757976678      2.50770574664405     -0.23714634870805
  H   2.99504238921771      2.09092978318089      1.32962517223673
  H   1.97482061999716      2.69741893657882      0.01933231359411
  C   -3.22312178819609      0.58625481865892     -0.90315677522108
  P   -2.60721514178864     -0.95709747221152     -0.25117731848581
  O   -1.24501841807830     -0.74149696240444      0.41579159080820
  C   -2.46532860969246     -2.12856374959628     -1.59140144640934
  C   -3.78736118425166     -1.58287843431074      0.93246761755746
  H   -2.52074581573440      0.97807337304802     -1.63753893336379
  H   -3.33050431439304      1.30587749724900     -0.09269001814343
  H   -4.19134358191767      0.43647605239858     -1.37978702059597
  H   -3.43610917476332     -2.29904999238880     -2.05579806726345
  H   -2.07883957047516     -3.07335574994154     -1.20983362478117
  H   -1.77393712208671     -1.74325124394541     -2.33998007011878
  H   -4.76177616852504     -1.71537916848175      0.46320537690832
  H   -3.88037184806352     -0.87997485888398      1.75936837644725
  H   -3.44514136519794     -2.54240479763256      1.31864202800136
  F   1.28175268181382     -2.79132477929882      0.08441982816006
