4
Coordinates from ORCA-job orca E -1050.211416380758
  Dy  0.35327893688821      0.79451670224527      0.76020622227656
  Be  0.68822292963595     -1.46782021173223     -1.88126931190517
  O   -0.95371368186419      2.03287512698002      0.53503330317189
  O   0.51647081105706     -0.53981230498793     -0.84902674949081
