4
Coordinates from ORCA-job orca E -397.860802248306
  Ac  -0.79430929142133     -0.73692229419180      1.48844762669809
  Li  -0.42860414927300     -0.61112250470753     -2.12030403024609
  Li  -0.33249834586121      1.68704215151501     -0.55716813486103
  Li  2.15190178655555      0.48289264738432     -0.24757546159097
