57
Coordinates from ORCA-job orca E -2694.076897343472
  Nd  0.29713237263908      0.11454821836135      0.08043556539566
  C   1.98165892189802      0.33113921055000      3.55111130971214
  P   0.30186038860459     -0.21878237636411      3.09800461824399
  C   -0.76309599491209      0.83875838399004      4.12999179380127
  C   0.19466771341954     -1.84644035451641      3.91206828103338
  H   2.13194438203146      0.29680688094627      4.63042441440586
  H   2.13837529292935      1.35085278106860      3.20064641968607
  H   2.71778145555879     -0.31500885954048      3.07244815212300
  H   -0.47066329247534      0.78742634948794      5.17883049575989
  H   -1.80170759001221      0.52422147136694      4.03559494942769
  H   -0.68897078690615      1.87111713973272      3.78970338172558
  H   0.44217723802472     -1.77230520760066      4.97117397058693
  H   0.89260348417343     -2.53293495863061      3.43302122202896
  H   -0.81315828438765     -2.24889317169186      3.81456994408176
  N   2.40259869466628     -1.91120102319684     -0.36129667364276
  O   2.14880195413319     -0.97304814404155     -1.15393545332151
  O   1.64440264083430     -1.92217462423214      0.64511306732350
  N   -1.96811232833713     -0.80627691496469     -0.14031702192303
  N   -2.92931090670592     -0.50493507828923     -0.82345351964413
  N   -3.82837629572081     -0.25818699745979     -1.46145209604478
  C   1.99863289260822     -0.36124698675816     -4.45695593348663
  O   0.67271788598213      0.19507135549874     -4.52958954215502
  P   -0.41880103244839     -0.23350323707012     -3.43012537735031
  O   -0.21471431938349      0.91527630105140     -2.24935133761378
  C   -0.25861384669271      2.33399480048172     -2.58995300239687
  O   -1.72106027862306      0.43052629712906     -4.09316169694170
  C   -2.25968448930990     -0.14590697333871     -5.29223275826183
  H   2.39610366375831     -0.36399681452766     -5.46641290985569
  H   1.97669486367978     -1.37782241299103     -4.06383455111080
  H   2.62309627348520      0.25258091330820     -3.81148292168348
  H   0.16312838144531      2.86463137647328     -1.74270652809831
  H   -1.29048086775707      2.62505436341090     -2.75807878239722
  H   0.33300491476996      2.50646706210840     -3.48451773928212
  H   -3.26645855542982      0.24263047198343     -5.40212566663792
  H   -2.29906581766290     -1.23486960574103     -5.21944315835327
  H   -1.65216962139762      0.13962148734621     -6.14787402189294
  C   2.51002868932705      3.69329555638830      0.64635782351351
  C   1.07963197013000      3.36924531963387      1.03057901188063
  O   0.72633432163468      2.06595219530890      0.63260102477723
  H   2.77664374563054      4.70201493553858      0.96133795048918
  H   2.64131912575489      3.62674407786352     -0.43425008230125
  H   3.20183126880231      2.99360818176794      1.11662770143645
  H   0.39307838367337      4.08672644619969      0.56972241407337
  H   0.95132054619670      3.46394424901642      2.11437389006168
  C   -1.21548860647107     -3.71460218858858      0.72199568997489
  P   -1.11019976461224     -2.94336926307944     -0.90612976901954
  C   -2.65064503421541     -3.30309042025629     -1.77425596848810
  C   0.15758328049019     -3.87576937547071     -1.82019910606681
  H   -1.42685452466369     -4.77976831212389      0.61704297688022
  H   -2.00597248998112     -3.23813801305898      1.29744698757401
  H   -0.26197857669208     -3.58925634195985      1.23357346919703
  H   -2.69570468642480     -4.37249372573731     -1.98180457400646
  H   -2.68624747171787     -2.76088820688333     -2.71850720030020
  H   -3.51207902150783     -3.02205346554532     -1.17286550287505
  H   -0.17473001121188     -4.91099495064940     -1.92338896085479
  H   1.10304301028125     -3.85287708884668     -1.28414588032626
  H   0.29194673909765     -3.43692073285731     -2.80654878886105
