5
Coordinates from ORCA-job orca E -648.103427841901
  Cm  -0.40248127134088     -0.61776773177480     -0.05862025754251
  Li  2.65167422598732     -0.33159227047421      0.37837863279676
  H   1.38160545184493     -1.46542737334657      0.74037012658550
  H   -1.19301389176791     -1.88933840347840     -1.42271715538610
  H   -1.74329451472348     -0.34291422092601      1.43464865354635
