5
Coordinates from ORCA-job orca E -1235.128546672289
  Fm  0.05174196858526     -0.89872115502521      0.23380279968111
  F   1.60990589975889      0.29480755172453      0.09002076114011
  F   0.82054705138874     -2.65693277372285      0.67280281709255
  F   -0.63338455423785     -1.06757993843765     -1.59834626998231
  F   -1.15432036549504     -0.31861368453882      1.67377989206853
