41
Coordinates from ORCA-job orca E -5075.082848046617
  Gd  0.67527778442540      0.79351137317400     -0.04138231996708
  N   0.12896559456414      0.64608196540205     -2.58155321302295
  C   -0.33913792194364      1.73545479319064     -3.19037145330014
  C   -1.20316968626702      1.68282258120353     -4.27126435579325
  C   -1.61463409684950      0.44406834665812     -4.72340119927648
  C   -1.12181336349715     -0.69267818173070     -4.10535330927388
  C   -0.23914424825642     -0.55603324039962     -3.04582342731292
  C   0.34358688810214     -1.74216284600088     -2.36233929758540
  C   0.38802660238461     -2.99197792598082     -2.96806509739923
  C   0.96806361342956     -4.04800801126983     -2.28797860699200
  C   1.50371836345697     -3.82784687631437     -1.03054690261749
  C   1.43577049320878     -2.54986095817997     -0.50516811344670
  N   0.86142307890307     -1.53556616889306     -1.14954372886534
  H   -0.01896268812760      2.68210909997050     -2.77763463104605
  H   -1.55613865255742      2.59832810319449     -4.72210451847858
  H   -2.31662819224943      0.35801494542776     -5.54136203866519
  H   -1.44861288893393     -1.67047007178767     -4.42365988223731
  H   -0.00214613010646     -3.13502947382040     -3.96387465052581
  H   1.01358291103342     -5.02788094900632     -2.74334968878468
  H   1.97909584208379     -4.61946168829480     -0.47051134192118
  H   1.86869045245824     -2.31135725247933      0.45765574377711
  C   -2.57169709281479     -0.39811269090428     -0.48974929188648
  N   -1.64643466444080      0.24111405686114     -0.16825593821900
  Br  0.83716150750317      3.51508211878086     -0.35279783261554
  Cl  3.18217440812590      0.20470163982926      0.42269966558036
  C   -0.66000610213656     -0.11094517361661      5.48312001438042
  O   -0.55603697113439      0.27208708962188      4.11001126796943
  P   0.80710033241877     -0.02845556553787      3.29367376096823
  O   0.18135017931352     -0.74531078458887      1.94676418530121
  C   -0.74509583120296     -1.83418539784732      2.09527977176489
  O   0.96445910968573      1.37690358391711      2.46028684841223
  C   1.92268223887578      2.33546494056750      2.96156003425398
  H   -0.91250391059925      0.76994868345230      6.06819061268678
  H   0.27731434069056     -0.53301862465589      5.85026496558314
  H   -1.45141469874835     -0.85095535020030      5.58305951527951
  H   -0.96102833019969     -2.20315361786424      1.09869681248617
  H   -1.66694329674618     -1.47351893126628      2.54309469408317
  H   -0.29892796384928     -2.62192317284872      2.70537140624632
  H   2.92861397889420      1.93301680493789      2.86272305598936
  H   1.69615048176670      2.57708967973575      3.99931834788962
  H   1.81646852933626      3.22131314756344      2.34532013658074
