38
Coordinates from ORCA-job orca E -1444.714433933360
  Ce  0.23174088613848     -0.32716714958984     -0.13806308559547
  C   -3.32629943034935      0.08132182557362      1.89230032268198
  C   -2.05513493512592      0.87188527805677      2.08637076526062
  O   -1.03695250200433      0.42454548626579      1.15649320746789
  H   -4.08423700267592      0.43444267098646      2.58983784714322
  H   -3.16530507759069     -0.97821120668996      2.09487094902255
  H   -3.71997529222725      0.21586318925631      0.88446819046654
  H   -1.64649761912456      0.74497073376184      3.08766451597374
  H   -2.20549645807838      1.93370680259373      1.90073891534581
  C   -1.28862067662166      1.21542781838082     -6.95011778497402
  C   -1.81311370667477      0.43837890653117     -5.92359077306578
  C   -1.30503459886171      0.55664340950835     -4.64593380695321
  C   -0.27245123011101      1.46559201523646     -4.38929876997638
  C   0.25322132239472      2.24281082174102     -5.43034074958422
  C   -0.25496022829919      2.11378081001849     -6.70638851044093
  C   0.23108726645087      1.57587797357706     -3.03560871561704
  O   -0.07459546383324      0.77666625036066     -2.11994414536794
  O   1.05118787318139      2.54111242029541     -2.68145266214335
  H   -1.68598090225340      1.11951464026609     -7.95104673457753
  H   -2.61647953706413     -0.25475610433231     -6.12603398935905
  H   -1.70870137831377     -0.03667045360132     -3.83853481750245
  H   1.07875758201461      2.92927741569178     -5.27969382876353
  H   0.15367911426955      2.70454786894892     -7.51295574786976
  H   1.21390142139473      3.16437809484479     -3.40303556101483
  N   1.83050317575765      1.61495330351406      0.36678776307158
  H   1.77094460085644      2.29645756373706     -0.38798839154029
  H   2.80248316265323      1.31357585153888      0.38257739340193
  H   1.66991569358405      2.13266369568686      1.22658770014683
  N   2.11841502570610     -1.90972629454940     -1.55657011433070
  O   0.97989432561187     -2.32314078167059     -1.19640238640019
  O   2.44468366287632     -0.87601473499125     -0.92312370315302
  O   -1.57740666230022     -1.96115748977691     -0.52538286682889
  H   -2.49215137922115     -1.96015675495788     -0.22151674090055
  H   -1.43762230508889     -2.76320535870486     -1.04552854255082
  N   1.25478696601325     -1.66711310918124      1.81338863501994
  H   0.86559495133336     -2.60729482105752      1.84995558975454
  H   1.11631185831294     -1.27626896556078      2.74175613817802
  H   2.25830749727017     -1.79851162170878      1.70585449557575
