4
Coordinates from ORCA-job orca E -1169.159723554140
  Eu  -0.65173239416834     -0.80425692951064      1.83445745821802
  Si  0.19784735539452      0.33891721352467     -0.64409254835128
  Li  -1.64802968415862      1.75609913522519     -1.30928660125573
  Na  2.70468747472830     -0.45919710239276     -1.37942109855248
