6
Coordinates from ORCA-job orca E -2746.780536217669
  No  0.95861860392308      0.48552891338512     -1.22472092940732
  K   -0.08869654648944      1.34464860755554      2.90802603684754
  P   -0.90039914629335      1.88107563029704     -3.02493689415875
  S   1.42562503245719     -0.62080182143134      1.08751372255973
  Na  0.32234675570780     -2.85443770224889      0.06888956719069
  I   -1.71748469930528     -0.23601362755745      0.18523849696810
