29
Coordinates from ORCA-job orca E -1135.484951358179
  Ce  -0.07041372057478     -0.66799216321850      0.39218988845307
  N   -0.03457347022822      0.13504169966846      2.76438302557600
  C   0.16884858544750      1.62611097470615      2.85575440348755
  C   -0.61129228421138      2.29917316306646      1.75055797784249
  N   -0.15659184521861      1.80757032829765      0.40458991587641
  C   1.17465928571097      2.35528950771710     -0.03832748419688
  C   2.22120603364138      1.25887981259973     -0.12265084476640
  N   1.73476025952773      0.16478035789958     -1.01797375761318
  H   0.62787581682781     -0.31952175768652      3.39785056230463
  H   -0.94603898730264     -0.07861797876760      3.18216498211751
  H   -0.16171987225385      1.99220906571001      3.82716357409820
  H   1.23759077406475      1.82617485151138      2.78418964089754
  H   -1.67834958452871      2.08368382259885      1.83904316370268
  H   -0.49717452356810      3.38310224282412      1.80346708851887
  H   -0.85297014830121      2.12811779355912     -0.26702182763479
  H   1.04643678347947      2.82614200195678     -1.01336880746343
  H   1.50555421409909      3.13186489054191      0.65055855513737
  H   3.17445413815146      1.65957924940338     -0.46937254777747
  H   2.42771344917392      0.82171524217575      0.86719030614891
  H   1.44116079482675      0.54387818118012     -1.92087419976249
  H   2.50404755620746     -0.47114161957786     -1.24197986841888
  N   -2.26579509077504     -0.54398790809506     -1.22123974451801
  O   -3.22695849189481     -0.52964951964393     -1.85073790039488
  O   -1.04121879234189     -0.43617340902795     -1.65577123027594
  O   -2.23112100549556     -0.67767781364707      0.10828362888078
  N   -0.00663790408715     -3.19699055798289      0.34548663311494
  H   0.06273771317325     -3.57572921943997     -0.60425161209551
  H   -0.86476162888673     -3.61532473606562      0.71824032334871
  H   0.74627194533712     -3.66410650226363      0.85905615541213
