4
Coordinates from ORCA-job orca E -1300.642780970384
  Th  0.13900261105770      0.18634926307976     -0.35290355471963
  I   -1.22969716467976     -1.75544582339944     -2.03447373136532
  I   -1.20549777126939      2.63073016434471      0.46807742998433
  I   2.89268232489145     -0.23974360402503      0.48269985610062
