43
Coordinates from ORCA-job orca E -3637.234203058390
  La  -0.02362921527410     -0.42914942384536     -0.85045144923861
  N   1.63527659701870     -2.51016237989022     -1.13184460541360
  C   2.62348943056049     -2.66442568648535     -0.04755111460447
  C   3.18854819506184     -1.30829708538637      0.32760319502131
  N   2.10023658525913     -0.43100955334451      0.82342733008910
  H   1.06940620276980     -3.34750015562506     -1.22431930327261
  H   2.10784179978375     -2.37595456087348     -2.02151184863285
  H   3.43652333061121     -3.33838071121170     -0.32050743643710
  H   2.11536120597063     -3.10420629657811      0.81285599323336
  H   3.62264612191931     -0.83304556488637     -0.55336148473413
  H   3.98317208503796     -1.42549563165639      1.06533158788240
  H   2.44761752380130      0.51593619097041      0.94113427827165
  H   1.82851479402316     -0.72582437580256      1.75752173756727
  C   -3.44959242538511      4.95725694588398      2.72621043993448
  C   -2.90328882760781      3.84002380798215      3.34505807122100
  C   -2.14481902023038      2.94735518274491      2.61087695444624
  C   -1.94593864250125      3.17020101858227      1.24912287938318
  C   -2.49077752329836      4.29628344826487      0.63012361021919
  C   -3.24032189390218      5.18976756225065      1.37279387901213
  C   -1.15098715101746      2.19290719948161      0.50442338799988
  O   -0.40065195828227      1.36293509639621      1.00255614868931
  O   -1.21922773534160      2.16347318485362     -0.83700880002893
  H   -4.03949524899420      5.65582575037941      3.30313906926776
  H   -3.07016268798170      3.66773621668923      4.39852051471387
  H   -1.71270248007343      2.07173440907577      3.07346316473637
  H   -2.30666250195000      4.51351413959564     -0.41535591821344
  H   -3.65472304114340      6.06881866980357      0.90087722726985
  H   -1.93544933818492      2.69726375502703     -1.20109644210481
  C   -6.03463613509797     -4.04778107424089      0.06176858407355
  C   -6.07154376709251     -2.66057002906707      0.00203057488503
  C   -4.89831700084444     -1.94652295605090     -0.16860304553484
  C   -3.68768749780545     -2.62491163143919     -0.28016456077654
  C   -3.65172266579521     -4.01529537026765     -0.22161543735870
  C   -4.82742425105368     -4.72536476817560     -0.04964960252107
  C   -2.43632680452338     -1.86360973016111     -0.46663587812506
  O   -1.31975919351449     -2.47561026758751     -0.58499075789934
  O   -2.45336080009695     -0.59127550489114     -0.51173475549467
  H   -6.95249168409527     -4.60428355895372      0.19386946455175
  H   -7.01507788660425     -2.13991142676325      0.08646789475908
  H   -4.90564133068386     -0.86726911911915     -0.22066616985103
  H   -2.70318957482478     -4.52439460056836     -0.31385514596282
  H   -4.80616225691138     -5.80509286547487     -0.00448769560383
  Br  1.07673666829502      0.38231175036465     -3.29796453541950
