5
Coordinates from ORCA-job orca E -1083.236422722640
  Gd  -1.59995335439395     -1.82728373705556      0.13054478061319
  Be  1.17338740845665     -1.36230527845535      0.82535888641219
  B   0.49855618126872     -0.36932327870158     -0.56698710806321
  C   0.54181787644796     -1.75613252556327     -0.66168706441242
  Sb  0.08068188822061      0.66800481977579      1.34483050545023
