4
Coordinates from ORCA-job orca E -792.111653936576
  Es  0.54646684561498     -0.24429330807216      0.52512586293876
  Li  -1.35033507034208     -0.41417509677349     -1.82139921865562
  H   -0.99447025679796      0.80089058846957     -0.68812471032156
  H   2.39482848152506      0.67946781637609      0.54779806603841
