41
Coordinates from ORCA-job orca E -2355.023132113756
  Ho  -0.70913102586176     -0.73914245745085      0.02543798039769
  N   1.60198903884809     -1.63678070905077      0.02247434428671
  C   2.53090495215889     -0.88000682189946      0.86929004164640
  C   1.85981180260359     -0.51236780024296      2.18177610484704
  N   0.64437503665532      0.29222188681684      1.92630190929192
  H   1.47460137285456     -2.57670037373227      0.38867813003128
  H   1.95312493070871     -1.76320695915283     -0.92696176527592
  H   2.82043568309005      0.02957055049122      0.33733436032667
  H   3.45118267608407     -1.43142958913082      1.07855957717316
  H   2.56838977982156      0.00946971670989      2.82872565143869
  H   1.54101772966594     -1.42258908610791      2.68698840054000
  H   0.89196648584545      1.25493515994967      1.72589410668947
  H   0.06554504960734      0.31392621902837      2.75875484560964
  C   1.40408369506267     -4.22570008205279     -1.95196646909522
  C   1.56883585111649     -3.10107599112628     -2.85087772073041
  C   0.67548665914611     -2.10031823927386     -3.05998418982410
  C   -0.59128684906672     -1.91615395074899     -2.40872431668494
  C   -1.24663436960067     -2.78343489621904     -1.50715266029268
  C   0.32707356294629     -4.61845079058102     -1.25230254315957
  C   -1.27304227821512     -0.61791366109018     -2.65876866929576
  O   -0.97316613975717      0.12430988258386     -3.59174235004235
  O   -2.08075615504212     -0.25162311858190     -1.68109616152868
  H   2.25749791574009     -4.88328223574546     -1.83609561075051
  H   2.49237134000951     -3.07815005975129     -3.41655138243376
  H   0.92077052094362     -1.32211742154068     -3.77193069653098
  H   -2.30964622041089     -2.64477649132850     -1.34899423534985
  H   0.36506202711775     -5.51884745700421     -0.65424492658180
  C   -2.94931482857316      1.77464210546546      1.12854399225914
  O   -1.88347564142705      1.43643084939931      0.23499145694022
  H   -3.73020737422529      1.01764913575253      1.10612300015625
  H   -3.35795859608103      2.75070377748214      0.86878343150703
  H   -2.53528392454043      1.81532848309407      2.13290033108749
  H   -2.24919861028286      1.24185247107670     -0.65335118356262
  N   0.57213312875447      1.07901405985350     -1.25895441395029
  H   0.33481215127865      1.99556382714300     -0.89414697530304
  H   0.17973867762353      1.03479862131115     -2.20683755192182
  H   1.57881422060735      1.04665419412830     -1.36937070168873
  O   -0.45904754149873     -2.51225881088870      1.74647635274475
  S   -1.87953178815089     -2.39566244908328      2.26849920881880
  O   -0.92240630369223     -4.09118341929206     -1.18721180763892
  O   -2.44933664186403     -1.16109806920958      1.57713310584967
