30
Coordinates from ORCA-job orca E -2763.676145893749
  Tm  0.22339065273813     -0.20677728070746      0.09910085388069
  N   2.44152193921011      0.61598251930333      0.74741034219812
  H   3.05090104270090     -0.16284032556557      0.98513214320137
  H   2.53905197418286      1.30003178923999      1.49120476281872
  H   2.84492544066573      1.04525549077132     -0.08175130274412
  N   0.14155523946182      1.04535937290015     -1.56746240100556
  N   0.05960714298051      1.75764253893140     -2.54314263926612
  N   -0.02166033256832      2.42015125204957     -3.44669627620283
  N   0.62831058815148     -2.78772655939325     -0.66836253282641
  O   0.80268272052949     -3.90141042724878     -1.01701580546027
  O   1.57337220767946     -2.00697690484809     -0.28045456587477
  O   -0.53645640781650     -2.23269591158915     -0.63200694896697
  C   -4.40036728088794      0.62852141900985      1.26024978377531
  P   -3.20847592093607     -0.42179776572095      0.44518918863483
  O   -1.79485660039618     -0.08199016837579      0.93832442263428
  C   -3.34242447458878     -0.16935025303381     -1.31865576381689
  C   -3.60719521513680     -2.12603824248735      0.79414135517179
  H   -4.17728364474524      1.67106033343262      1.03731262242852
  H   -4.34680087594208      0.47413952845803      2.33715684427817
  H   -5.40793637409928      0.39625500080811      0.91700246024137
  H   -4.35954970624529     -0.36923827448693     -1.65477043315240
  H   -2.65927149592736     -0.84503936434650     -1.83449894255221
  H   -3.07788188501785      0.85954184738774     -1.56124035606659
  H   -4.61027513403056     -2.36121457897321      0.43907275039663
  H   -3.55801245093765     -2.30321786036124      1.86782192905635
  H   -2.88412812956854     -2.76571335368428      0.28835827781236
  F   1.15206904972891      0.38305936974578      4.35119951268585
  P   -0.18514056282509      0.17856775827126      3.57890911219405
  F   0.39414724390070     -0.91932383201362      2.52795421485167
  F   0.00268124973961      1.37898288252689      2.54561739167504
