6
Coordinates from ORCA-job orca E -13381.718465273352
  Np  0.08739506154500      0.14541075770140     -0.00180127425931
  Br  0.29842995331135      0.50025258149363      2.56311065046358
  Br  0.28360483291584      0.47497046928579     -2.57076592222543
  Br  -1.22878619612558     -2.07439117948080      0.01689596519736
  Br  2.49441367654480     -0.82410157623782     -0.00382364945119
  Br  -1.93504732819141      1.77785894723780     -0.00360576972501
