4
Coordinates from ORCA-job orca E -909.784687725586
  Bk  0.36778657263043     -0.18641703474544     -0.47216227045515
  O   -1.02738252130376     -0.83371399487636     -1.34185043942429
  O   -0.59919311636917      1.55379482306171      0.02316181045603
  O   1.85527906504249      0.28822620656008      0.35425089942341
