4
Coordinates from ORCA-job orca E -873.103629203014
  U   -1.32104996377102     -0.13154369495263     -0.07029593764739
  B   0.03405423280623     -1.21163172463350     -1.29795728500635
  P   -0.20737417573031      1.98967569974178      0.28543563627996
  Sr  2.09085990669509      0.17538971984434     -0.35378241362622
