4
Coordinates from ORCA-job orca E -5302.646110034690
  Ce  0.22238107905921      0.29929771862924     -0.27322440433855
  B   -1.12935095652738     -1.60287812483011     -1.86652864362805
  Se  -1.26722622568447      2.47185158983806      0.34239504955303
  Se  2.77068610315262     -0.34638118363719      0.36075799841357
