42
Coordinates from ORCA-job orca E -1860.833540165032
  Nd  0.06149198190512     -0.41921633422842     -0.16494819719828
  N   -1.58751623830579      0.83332730148663      1.41755624613302
  C   -1.61581647196563      2.29443753780099      1.16029177628302
  C   -0.19674725720112      2.81471965658512      1.05697612099712
  N   0.54625962958534      2.18847449694286     -0.06645794615562
  C   0.35541389729828      2.86753556098842     -1.37517583081367
  C   -0.44424098049341      2.02607770712707     -2.35146428188033
  N   0.21214705941232      0.70750394039311     -2.52946352467367
  H   -2.53583901199705      0.47336160759313      1.46284276184271
  H   -1.20854836370037      0.67123350392721      2.34835342419134
  H   -2.14343378767466      2.83437594177517      1.94697594413327
  H   -2.16183977290548      2.46931812870760      0.23153350445687
  H   0.33936678621747      2.57714175404752      1.97625610995327
  H   -0.20638080188290      3.90164162995706      0.95752385234001
  H   1.52884683615218      2.25812003780442      0.17414605131578
  H   1.33608328692352      3.07581178782410     -1.80629499057603
  H   -0.13643417114068      3.83166057775494     -1.24021811757314
  H   -0.54816603817772      2.56189291360580     -3.29551077319527
  H   -1.45386598133424      1.84941609083310     -1.97102215049653
  H   1.15674642485484      0.84920217693773     -2.88056917879011
  H   -0.26097086278859      0.19215496871509     -3.26576062445380
  C   2.22635372054027     -0.60510062745415      3.97902993378032
  C   2.04073189860071     -0.75214141708965      2.51209995536852
  C   2.64175274373865     -1.92691193716179      1.87639203226889
  C   2.93333785800021     -2.01878970414239      0.44417120722416
  O   2.32604100981673     -1.31642950522073     -0.37502880181581
  C   3.97665623745125     -2.98667382843723      0.01851801586428
  O   1.40436572353132      0.07784037695529      1.85004609801631
  H   3.27625103271672     -0.71862083371757      4.25247491033875
  H   1.68430605825260     -1.41656681519514      4.47429086970983
  H   1.84769941551444      0.35184540625908      4.32334216334763
  H   2.99774439876748     -2.72204731745007      2.51765720015586
  H   4.89067844317522     -2.85093643336612      0.59873344158770
  H   4.18267346219380     -2.89008520679001     -1.04241134673137
  H   3.61729963724424     -3.99704894050814      0.23695076037790
  N   -2.34167096515162     -1.08176367503299     -1.10488344624731
  H   -2.40810043993962     -1.45378691490179     -2.04823404199499
  H   -3.12323779526049     -0.43783387239931     -1.02106472938690
  H   -2.56516837466978     -1.86789774223981     -0.49484243598064
  Cl  -0.30285739131635     -2.60531761057813      1.24336016566652
  C   0.30231306366115     -2.65984150408327     -2.00217234382307
  O   0.50897410035144     -3.63488288402474     -2.50739978356660
