6
Coordinates from ORCA-job orca E -1176.092173841273
  Cf  0.35193582260588      0.71187795439250     -0.67472387380626
  Li  0.42398598364781      0.13836511398057      2.26547336753455
  B   0.08509013983960     -1.56379075904318     -2.42344259120865
  C   -0.78195470459988     -1.11030571669551     -1.37803266719389
  O   1.29754645335569     -0.12172712844383      0.75312277429947
  I   -1.37659369484910      1.94558053580945      1.45761299037479
