6
Coordinates from ORCA-job orca E -14028.820551668563
  Yb  -0.13082229913221     -0.23761303203498     -0.00371064518615
  Br  0.78659099179572      0.59258705953993      2.41906397476417
  Br  0.02962523760458      1.04759713805336     -2.39830955491034
  Br  -1.24566159672577     -2.52264800578708     -0.04378124956622
  Br  2.52578325716412     -0.60530305895667      0.45298440415808
  Br  -1.96550559070641      1.72537989918541     -0.42623692925955
