32
Coordinates from ORCA-job orca E -2250.671703140189
  Lu  -0.10094505752626     -0.46979282734892      0.19817443060394
  C   -4.25090487628124      2.76776555101850      0.09528667186464
  O   -3.11716335443092      1.84009832552164      0.11597904270401
  P   -1.63076382738323      2.36676226126851     -0.12984380161177
  O   -1.08806685913785      1.15906868745733     -1.18772785250944
  C   -1.51377846008006      1.30319004286194     -2.57673479106822
  O   -0.83394656672884      1.51293329295317      1.06669773866382
  C   -0.79743273404191      2.06618932331596      2.42456010558839
  H   -4.93287175458577      2.43476315305087     -0.67911941641525
  H   -3.90931526469260      3.77989551474938     -0.11210506134712
  H   -4.72752475426712      2.72437023300547      1.06822218730941
  H   -2.56610094481766      1.04587168369751     -2.66264801644849
  H   -0.91189448052673      0.62713698149850     -3.17533697852400
  H   -1.34286158587017      2.32644864020661     -2.90465219097813
  H   -1.80518668422309      2.07849641510592      2.83053328426084
  H   -0.37885065289307      3.06829802267983      2.38895098869442
  H   -0.16303771504162      1.40534273317345      3.00473014611420
  F   0.56750034782705     -0.93089267593513      1.95789287606833
  N   -2.34020958534849     -1.24480677853001      0.65575188883522
  H   -2.37165960700537     -1.59016458020660      1.61425694156740
  H   -2.77426601716195     -1.97239065317490      0.09370346217029
  H   -2.98168796998739     -0.45222488554233      0.62301945096299
  N   0.39248710091386     -2.63043650232085     -0.78511296440581
  H   -0.30838785727146     -3.10598757216627     -1.34877906478431
  H   0.58900721692048     -3.26465168717458     -0.01046345411299
  H   1.23866188625366     -2.64109636711402     -1.35168474349387
  C   3.16326952420476      0.13084542317374      0.32639335809460
  O   1.93615692129475      0.26422036122375     -0.48004172328375
  H   3.52372320811193      1.12155591098091      0.58411623157833
  H   3.90436430763146     -0.41663702373208     -0.24727195292475
  H   2.88585235913767     -0.41311644940041      1.22271907376258
  H   2.13213373700729      0.81524544570300     -1.24476586693553
