40
Coordinates from ORCA-job orca E -2481.332204921130
  Lu  -0.23409178800483      0.40690801633873     -0.39145393368734
  N   -0.35577749003209      1.68132956342508      1.71805383755787
  H   -0.08477428430372      1.05117808107321      2.46697777223189
  H   -1.26165265904794      2.05721484110404      1.97611758439839
  H   0.30183920294192      2.45451396461013      1.73162192334051
  F   -0.82162848529049     -0.56725949653737     -2.03082704532807
  C   6.57522980066096      0.00316856400322      0.13580699785037
  C   5.99840163866869      1.12619608692520     -0.44333368505541
  C   4.62067971562541      1.22384263110612     -0.53569315222371
  C   3.82298688657683      0.19302366574274     -0.04673378679702
  C   4.40131437104892     -0.93304644502714      0.53249600554752
  C   5.77939007222652     -1.02547889008638      0.62360167899444
  C   2.35483998638757      0.29388444182136     -0.14841565805814
  O   1.80336356590893      1.32265646903223     -0.65852755472349
  O   1.60537374052388     -0.65051535579617      0.27810227196228
  H   7.65187383860631     -0.07163474219935      0.20596396729119
  H   6.62427829515632      1.92140796161294     -0.82323014866862
  H   4.15124792493454      2.08666769580342     -0.98611213061768
  H   3.76416844449501     -1.72329569206402      0.90290877776219
  H   6.23547972333951     -1.89716651894355      1.07151795916614
  C   -1.95811303560478      4.30953256943228     -2.90410867926333
  C   -1.54523883756910      3.25225383427473     -1.99940619374597
  N   -1.21741225981884      2.41463943613927     -1.29162977201849
  H   -2.75530509063551      4.89119747510311     -2.44654694040773
  H   -2.31538192142749      3.86706877155295     -3.83163086525066
  H   -1.10878722956794      4.95627058372610     -3.11368639151660
  C   -2.47963317591763     -3.19708864939930      1.92366064163575
  P   -1.90359459776072     -2.37733826893631      0.44231930308389
  O   -1.48841593964415     -0.94298299879459      0.77513728665749
  C   -3.21847810715823     -2.40431910249065     -0.76634058894369
  C   -0.53345378893055     -3.31386960866964     -0.22138624105151
  H   -1.67387954082344     -3.22959744277088      2.65546959850354
  H   -2.80014409467472     -4.21324221645407      1.69754308823518
  H   -3.31739096174900     -2.64142386688869      2.34232147031841
  H   -3.50711426604000     -3.42928353484228     -0.99670539676293
  H   -2.85265123660014     -1.91347737091726     -1.66829683462460
  H   -4.08255659874445     -1.86617251187595     -0.37890154197499
  H   -0.81207222917377     -4.35885668606549     -0.35287508730100
  H   0.31587102303593     -3.24224735167217      0.45726813492830
  H   -0.25649061161804     -2.88715790239543     -1.18554667144419
