6
Coordinates from ORCA-job orca E -7852.764363454785
  Gd  -0.12876610456436     -0.38716258144751     -0.55236699658827
  Mg  0.77848761904004      1.05189338286698      2.48696313000076
  Ge  0.34563072526628      0.42726721123944     -3.49163213433021
  H   -1.42060568619910     -2.08323869815835     -0.63744956894451
  As  1.86790686950776     -0.83018786390361      1.23552642383194
  Br  -1.44264342305063      1.82142854940306      0.95896914603027
