5
Coordinates from ORCA-job orca E -5284.874653785796
  Es  -0.09561790284184      0.32511552855289     -0.20237195176194
  H   1.82593479753564      0.68294803483459      0.03540610368602
  Ga  -0.23165067056051     -2.51450837082634      0.54178273371337
  P   -0.11379096605177     -2.04181009899587     -1.60069070303475
  As  -0.69038525808152     -1.09878509356527      2.29793381739730
