21
Coordinates from ORCA-job orca E -2167.607918862216
  Lu  1.06981022844516      0.37320609472016     -0.22571856617645
  F   0.88541824301951      2.41545940285098      0.31741003559696
  C   -0.64721168354349     -2.39643447014190      0.20923659773669
  O   -0.16267947711632     -1.30485541492469     -0.45785619964414
  H   -0.26045283368483     -3.34987170079600     -0.19832444127179
  H   -1.75324517622801     -2.47288103510811      0.14927238854093
  H   -0.39533346985953     -2.38568034412313      1.28352638614816
  F   3.01766043389849     -0.16560990860229     -0.17224278732466
  N   0.81623729691806     -0.06493435822506      2.04906044814991
  N   1.08147513823047      0.13224510790675      3.17979102235574
  N   1.31638063263655      0.29864567057340      4.29882974505367
  I   1.39225048956935      1.02903285613384     -3.34951547945670
  C   -2.35887822181426      1.06262930523159      1.45395257745677
  C   -2.38434738294569      0.98922852663986     -0.06202720904735
  O   -1.20453708813592      1.47629900087527     -0.66492228795107
  H   -3.29291906689637      0.67050237299424      1.86609584445790
  H   -2.24391193969531      2.09610482573471      1.79085056216029
  H   -1.52226411285610      0.48524012879496      1.84821838722792
  H   -3.25048397811167      1.54371590852741     -0.45224412520208
  H   -2.47102189569684     -0.04904753539122     -0.38527233741129
  H   -0.76844613613321      2.19390556632924     -0.16262056139946
