33
Coordinates from ORCA-job orca E -1549.512899480630
  Gd  -0.73174123343075     -0.00457299630931     -0.53431287318988
  C   -0.64841986159449      0.57458490239493      2.91856326961902
  O   -0.14615842474617     -0.17424640031259      1.79290019797240
  H   0.06835966821014      0.54238536126014      3.73547137236173
  H   -1.61027020402758      0.18011882110048      3.23827243034279
  H   -0.76977622558720      1.60017288431028      2.58374872749781
  H   0.01984706739584     -1.09032554329569      2.04312886847213
  C   2.14875606843802     -0.41895405841011     -0.83293849289216
  O   3.07393022994021     -1.04372253012885     -0.92632581650025
  C   0.23094671580925      5.16240011920988      0.28917381292512
  C   -1.03432112936813      4.63774115944766      0.08138092099700
  C   -1.16365398934355      3.27938609395712     -0.14378479757564
  N   -0.10988660321401      2.44787038775619     -0.17207429315866
  C   1.10860848173074      2.96493981600832      0.03182260157304
  C   1.32397227545405      4.30903172795562      0.26536133321205
  H   0.36476921769155      6.22016218272036      0.46833566580771
  H   -1.91309959633926      5.26529719612216      0.09381461309203
  H   -2.13308093039692      2.82098908048329     -0.29821247376990
  H   1.93812714266361      2.27033796518483      0.00739435155717
  H   2.32756406682581      4.67464570578152      0.42409060980539
  C   0.41859318689274     -3.50060904939604      1.20440891517288
  C   0.18166562019303     -3.31538738911767     -0.28457294374960
  O   -0.20678706118333     -1.99900743432079     -0.57727071192648
  H   0.70726789201296     -4.52503080521677      1.43766909363377
  H   -0.49458804408367     -3.28152358141627      1.76415155595209
  H   1.22878307870507     -2.85008420675951      1.54782273949008
  H   -0.59071477191089     -4.01178831529577     -0.62309993941631
  H   1.09824382519267     -3.56237952397314     -0.83236877521504
  O   -2.73014006021438      0.39350312644043     -0.33950367910192
  H   -3.64225124793082      0.12149971942506     -0.26195357154993
  O   -0.51086841381351     -0.22584195578432     -2.96475117583766
  H   -0.93597493528252      0.19459937237282     -3.71751376291020
  H   -0.39280180468851     -1.15729183219433     -3.18342777269063
