26
Coordinates from ORCA-job orca E -1344.686527258287
  Ce  0.33567997850697      0.01389180269411      0.19232837385110
  I   3.12207930797151     -0.34287589572811      0.73605587907014
  C   -0.68188308070644     -0.37139430158132     -2.88334166144628
  N   -0.38484061573357      0.25404609860832     -1.92769232498523
  C   1.24158298995715      5.16081598614091      0.20749121546970
  C   1.31998224982395      4.38500989247371      1.35550173446310
  C   1.02169045855798      3.04286137988416      1.26360202621954
  N   0.65870195786874      2.46154950854288      0.10910820425653
  C   0.58183728955172      3.21494595257185     -0.99928333918160
  C   0.86579592919966      4.56623632831305     -0.98640361433762
  H   1.47139903361699      6.21646736759101      0.24488966928501
  H   1.60933581781642      4.80866448895922      2.30530855288587
  H   1.07701776552706      2.40371187411317      2.13753039779511
  H   0.28358031155646      2.70906119786010     -1.90648301351877
  H   0.79262583011693      5.13553729261922     -1.90075518778199
  C   -2.05844446647954     -2.57159442273185     -0.30531930347612
  C   -0.75763448860099     -3.16341676476446     -0.78016572158717
  O   0.33709959826500     -2.35438250100430     -0.22819363790765
  H   -2.88610808111680     -3.16818475852185     -0.68471521196584
  H   -2.20472798052721     -1.56065447281360     -0.69371470155327
  H   -2.11510185381051     -2.56754619747675      0.78264476833040
  H   -0.67147966736810     -3.13965294147871     -1.86455577471065
  H   -0.62375411858280     -4.17937717252722     -0.41624102052152
  H   1.17942786987499     -2.81502872648151     -0.31481228843704
  O   -0.94029748322005      0.16574539264298      1.71466861567277
  H   -1.63006455206553      0.22136359209479      2.38264736411150
