20
Coordinates from ORCA-job orca E -1341.225474520752
  Dy  -0.04305882996722     -0.05330049464467     -0.67235661514837
  N   2.06607103574584     -0.64588968897414      0.60227272011458
  H   1.97788040181050     -1.40674785161172      1.26610976318613
  H   2.53071575989529      0.11907608147447      1.07717743263488
  H   2.67703652209263     -0.96643996312982     -0.14646745429003
  C   -0.15897985551378      3.22887321571765      0.28906491801117
  O   -0.05004418633347      1.91835214471216     -0.17196788926240
  H   0.79969608001328      3.59581790554486      0.66952661117960
  H   -0.89103709999321      3.30958996292619      1.09944730879858
  H   -0.47360392292449      3.90391754677072     -0.51282758616819
  O   -2.17355681253699     -0.25415716177801     -1.87240109839839
  H   -2.85866633948858      0.35334188144708     -2.15604798393489
  H   -2.52299833455676     -0.81014614328440     -1.15532799311750
  C   -1.55092655357075     -2.11889374159347      1.52379166299138
  O   -1.27050019626349     -1.35992260613223      0.38619109987236
  H   -1.91664017908155     -3.11367445567441      1.25102770628460
  H   -2.31386753616691     -1.64249610296636      2.14857378122753
  H   -0.66181780262487     -2.26251362252634      2.15083409106617
  C   1.46376726383291     -1.02255593887853     -2.36235301042295
  N   2.45033058563165     -1.46123096739909     -2.78266746462430
