32
Coordinates from ORCA-job orca E -1669.210719491523
  Ho  0.41482085837306     -0.60275804020675     -0.12620313821749
  N   -2.00411090569612     -0.71322251517892      0.39413982185412
  C   -2.69945050783286      0.49643016152596     -0.09913736715116
  C   -1.95858007588693      1.72485664878300      0.39243624267496
  N   -0.57601300766046      1.74852278057152     -0.13031723051416
  C   -0.40919257314864      2.40715660816979     -1.44858174853356
  C   0.10484446442186      1.43832557721916     -2.50101792011344
  N   1.30728246813943      0.74594421675298     -1.99027442533760
  H   -2.38803318407242     -1.54344368172055     -0.04476500443829
  H   -2.16129501807973     -0.80988687621814      1.39356854230529
  H   -3.74014196975150      0.53193250286867      0.22522774459975
  H   -2.70090310710342      0.46169585372737     -1.19026252895625
  H   -1.89700161488572      1.69301763105470      1.48134256049635
  H   -2.50413462593651      2.63105322497269      0.12073630768318
  H   -0.00322474553026      2.24158565805044      0.54345082958833
  H   0.29527062182677      3.23379222823430     -1.34233336088972
  H   -1.35361577380156      2.83942372990304     -1.78196149968843
  H   0.29631305221962      1.97375151459020     -3.43217969821102
  H   -0.64269133642316      0.67003290697255     -2.71410369417520
  H   2.04241522534787      1.41327305290626     -1.77654574530959
  H   1.66934196930107      0.11903160567612     -2.70061730407574
  O   0.01483336322087     -1.97023106445978     -1.59945713242685
  H   -0.17130222011314     -2.58984820000470     -2.29904373244459
  N   1.53025682305408      0.71668621677501      2.13734996252257
  O   2.11345874225052      0.62358111964488      1.02669009137964
  O   0.46382235594156      0.04922423298298      2.18646193556670
  C   2.39675362076183     -2.70982797987220      1.92934902030715
  O   1.53613332486553     -2.44408445222988      0.79966123833862
  H   2.15707275262131     -3.68218624610572      2.35148788586025
  H   2.20001012516261     -1.93784298947841      2.66441711730805
  H   3.43857531334644     -2.67305138143036      1.62127399839402
  H   1.53928558506804     -3.18453404447622      0.18540823160409
