5
Coordinates from ORCA-job orca E -3309.354668999832
  Bk  0.35443596449596     -0.40710416672249      0.27361856362942
  H   1.73159397415812      1.16309129997738      0.57366706659640
  Si  0.52993072321978     -3.22801167690415      0.04290932644135
  As  -0.82972711480176     -2.20338278303259     -1.50255342796315
  F   -1.09174354707210      0.02836732668186      1.68441847129597
