4
Coordinates from ORCA-job orca E -2539.323154525907
  Yb  0.13476206961770      0.21844987733534     -0.36627067914306
  Cl  -0.95845958842190     -1.43728585288257     -1.71961267616825
  Cl  -0.98198905291122      2.22593706009468      0.33119756065412
  Cl  2.40217657171542     -0.18521108454745      0.31808579465720
