6
Coordinates from ORCA-job orca E -964.975468156220
  No  0.78122329258399     -0.01944793387715     -0.11233941883499
  Li  1.01526502635808     -0.09134233506129      2.95232028101218
  Li  -0.88884002111505      0.07996187290810     -2.57539006459305
  H   -1.52507447834514     -0.35211258277633     -0.94653273201619
  H   2.10845969176034     -0.14329632187765      1.61733654226622
  H   -1.49102351124221      0.52623730068433     -0.93538460783417
