29
Coordinates from ORCA-job orca E -1790.035935670201
  Eu  -0.03905705327414     -0.93081176024972     -0.86701542552313
  O   2.37769237690869     -0.94208287824655     -1.25472307056492
  H   2.70824549534034     -0.03504514494311     -1.28431711066326
  H   2.97660278529651     -1.49036347291082     -1.77039691367842
  S   -0.38971612811443      3.83431937182744     -0.41326686460308
  C   0.16674753907359      2.36589389994544     -0.59399333301947
  N   0.56769278105836      1.24658354223306     -0.71152549690635
  N   -0.60808892620279     -2.11521004512287     -2.58051717909959
  N   -0.85969981105553     -2.76660132985359     -3.57444829276569
  N   -1.09763309492570     -3.36835865527378     -4.49144472241662
  C   -2.61882965509087      0.66905005197847      0.67324986253915
  C   -3.77473331562302      1.43922373011464      0.07475422744566
  C   -4.50077447832510      0.35285108368437     -0.71791283239115
  C   -3.35681782210302     -0.43836275542175     -1.32340874832914
  O   -2.24528394578580     -0.29469633057044     -0.36635773169030
  H   -2.91555243726742      0.10273568248573      1.55653205877884
  H   -1.74676867937506      1.28251022435171      0.89155865989434
  H   -3.39957066884049      2.22426275625307     -0.58232456119131
  H   -4.39649093795941      1.89698626629285      0.84014608770018
  H   -5.15843677601592      0.75204212362529     -1.48581191536147
  H   -5.09231670658779     -0.27608346111721     -0.05272318163701
  H   -3.02432006317910     -0.02132552195732     -2.27288473540659
  H   -3.55286468049851     -1.50053280370388     -1.44099905722199
  C   1.15780053427486     -0.96102506103204      2.26783865000963
  O   0.39170656281905     -1.78606297450227      1.34336782222214
  H   2.11908114253665     -1.42610123479878      2.46638868912172
  H   0.59491610493743     -0.82236976268152      3.18640776404202
  H   1.30513625800035      0.00141608208119      1.78266121721231
  H   0.19253359997871     -2.63264162248760      1.75306613350361
