17
Coordinates from ORCA-job orca E -4793.290098166501
  Lu  0.40965542962722      0.42277287652239      0.98579576752041
  Br  -0.46200576118996      0.14103116854740      3.64682829230056
  N   1.62042862577822      2.99075678009910      1.45055980528357
  O   0.52674589090589      2.82670885692005      0.85130298013851
  O   2.12119175589146      1.92768337437375      1.86660829523581
  O   1.33348775726018     -1.51828290274997      0.64508199578073
  S   1.90126901631115     -1.25671509223759     -0.80340712075593
  O   1.53297638200819      0.26897846180350     -0.89382830318361
  O   3.37023287836814     -1.37834228311117     -0.74715563130383
  C   -2.38582795865747      2.03244951853909     -1.43654141380128
  C   -1.93518498030578      0.58991537545738     -1.20123675507369
  O   -1.44251054457281      0.41756254091258      0.07094094909984
  H   -2.78672819568487      2.17076401441026     -2.44758936355890
  H   -1.53918923131829      2.70544761954900     -1.29346719416040
  H   -3.15532579316743      2.30380999494496     -0.71025605398393
  H   -1.18275640719271      0.33288510117633     -1.96518669384015
  H   -2.80035886406107     -0.07652540515715     -1.38254955569772
