5
Coordinates from ORCA-job orca E -11311.212424357229
  Er  -0.23968252679443     -0.84230947510537      0.15963885709226
  Br  2.36009795168318     -0.03427739625556      0.31709506705692
  Br  1.57738289646508     -2.79518791171031      0.74939785633922
  Br  -1.22260862124998     -0.92357783272397     -2.21418186058253
  Br  -1.78069970010385     -0.05168738420477      2.06011008009412
