18
Coordinates from ORCA-job orca E -2308.388175009823
  Lu  -0.26467055442613      0.84157904230394      1.42314097607434
  F   -1.50722413047451     -0.92674915196506      4.63909154630616
  P   -0.02346994235853     -0.52871866114655      4.48414011177886
  F   0.15641887622600     -1.04858424840412      2.94958061185030
  F   -0.29785304805697      0.98065730669320      3.89952963250018
  C   2.17394698987953      2.29425842681999     -1.38130963451072
  C   2.56948950524618      1.43792607432728     -0.19849611603408
  O   1.45246400911083      1.19562777613405      0.64576868095934
  H   3.03397984148765      2.47041236186895     -2.02602868275326
  H   1.79966258422051      3.26317412519169     -1.04876300118592
  H   1.40188551893005      1.80198535446568     -1.97279610552580
  H   3.34381860014073      1.92706575261971      0.39401288355141
  H   2.96183350940075      0.47616665741992     -0.53144183320394
  N   -1.83618167854850      0.27990428393931      0.25516126898923
  N   -2.60808683086907     -0.07292330924689     -0.61911397585968
  N   -3.32751978314467     -0.39731461752785     -1.41198599411978
  C   -1.00595456159315      3.29405016974097      1.44414410445306
  O   -1.32283890517076      4.35678265676565      1.33826552673022
