5
Coordinates from ORCA-job orca E -853.112783836779
  Pu  0.82035678731244     -1.83548517981175      0.42352319594175
  N   -0.18549814493039     -0.39759013889359     -0.07225660535910
  O   1.81015252531743     -3.26238254967335      0.90969099133149
  Li  -0.48439065085873      0.10778747998142     -1.84733889388323
  Na  -1.26613051684075      0.74063038839728      1.65844131196908
