6
Coordinates from ORCA-job orca E -13955.374595014488
  Tm  -0.12929271414985     -0.24535924984903     -0.00920280486479
  Br  0.76187422250318      0.52877689178489      2.45075817358940
  Br  0.06624623477772      1.05360643825720     -2.40160901319910
  Br  -1.33573300056594     -2.49339226884475     -0.11171926555750
  Br  2.52891654171399     -0.64676687615115      0.49280512741529
  Br  -1.89200128427912      1.80313506480283     -0.42102221738331
