4
Coordinates from ORCA-job orca E -3601.662710107653
  Nd  0.21804506231480     -0.51102367558420     -0.70374337451555
  Se  -1.47298955586712     -1.72292945800227     -2.02875815141434
  I   -0.05741302661445      2.29895489859790      0.59764998975928
  P   1.90884752016677      0.75688823498858      0.69825153617061
