4
Coordinates from ORCA-job orca E -47.008491141608
  La  0.90441436664078     -1.11793679881421      0.68535260719432
  Li  -1.44925341072195     -0.69521026244046     -1.70578782809116
  Li  0.00961119827409      1.57185457981254     -0.81234528854096
  H   1.13171784580708      1.06318248144213      0.39618050943781
