4
Coordinates from ORCA-job orca E -1172.039584433831
  Lr  0.07694586633836      0.10392192229911      0.40100619876846
  Be  -0.87311009566955     -1.25330899661332     -1.92884590000714
  O   -0.72117198357797      1.97945763875872      0.04160919529934
  O   2.11382621290915     -0.00818056444451      0.04963050593935
