5
Coordinates from ORCA-job orca E -1023.450086314738
  Lr  -0.51910096618266     -0.77693705105735      0.08980904673856
  Li  2.61757063077819      0.16405186907043      0.31701367181108
  Li  1.81466399894548     -2.97161185972227      0.89983975769390
  H   -1.39005610887274     -0.87951881116784     -1.68702571644144
  H   -1.82858755466825     -0.18302414712296      1.45242324019791
