46
Coordinates from ORCA-job orca E -2372.324529452929
  Er  1.14399718749671     -0.50092371569701     -1.02348361253158
  C   2.27327915831057     -4.20387256110779      1.28009782038698
  C   2.53251524979439     -2.93632303033802      0.52965189991927
  C   3.83862975903183     -2.52343465622031      0.27260554376349
  C   4.17356009034738     -1.37505215496958     -0.45603523446771
  O   3.30573244321790     -0.56327810689512     -0.92598658050850
  C   5.60512972825397     -1.04388527462332     -0.72927213169367
  O   1.49094312839616     -2.28834102984659      0.14774696992863
  H   3.18800798041764     -4.68669262766680      1.60938998573535
  H   1.71687554831792     -4.88469110827470      0.63474278527592
  H   1.64090604305457     -3.98796133233168      2.14156789768744
  H   4.64336167122511     -3.14496502140843      0.63124372406153
  H   6.29078723738193     -1.74260230691243     -0.26039905177475
  H   5.81148039231081     -0.03165959008414     -0.38175188259686
  H   5.76199787313720     -1.04891468082916     -1.80857505260390
  C   -0.94979423968756      4.00040239964995      1.29705831841795
  O   -0.54068074372008      2.77440708508805      0.64866315427980
  P   0.96885389155358      2.59197922089329      0.14910790977724
  O   1.32631890740396      1.07977335650065      0.75728130254911
  C   1.99802705653093      0.97485232110771      2.03377445048071
  O   0.68645701052819      1.84441654625140     -1.30453705597655
  C   0.23709897027716      2.67065574021916     -2.41748264522382
  H   -1.77001385986016      4.42425112309242      0.72602151165211
  H   -0.12611284537271      4.71233589905410      1.34168156736491
  H   -1.28263279971778      3.75838754541183      2.30171092243207
  H   2.50441465887750      0.01395240633274      2.05147835042962
  H   1.26385157602205      1.02659190608970      2.83376876123101
  H   2.72967107136129      1.77433798437884      2.13545328925135
  H   0.20776348697635      2.02618301182708     -3.28951697159320
  H   0.94238853461076      3.48533984929126     -2.56782145845750
  H   -0.75558096463408      3.05538746827194     -2.19528236272175
  C   0.56125448680910     -0.65105993387152     -3.31142189596026
  N   0.02894814521186     -0.37566737951430     -4.30143491287750
  C   -2.13518600500274     -0.06866932478353     -1.18889213292729
  C   -3.35212346979866     -0.95838877391905     -1.04703222093808
  C   -3.14641355308029     -1.56512169436528      0.33986850018569
  C   -1.65426196590623     -1.83576859999978      0.35904701698890
  O   -1.07099830400632     -0.78777979226252     -0.48067955436447
  H   -2.26353498012616      0.89269994683605     -0.68995424099702
  H   -1.80913537055688      0.07346834475437     -2.21725830162762
  H   -3.34409004805824     -1.73251773196488     -1.81420821453161
  H   -4.27798267816193     -0.39525386686457     -1.13536278480038
  H   -3.72168290105236     -2.47372767989288      0.49950400718028
  H   -3.41527717245667     -0.84656344304997      1.11466285749320
  H   -1.40065864255152     -2.79558017424655     -0.08825648201838
  H   -1.19689074310675     -1.76502656311054      1.34271623471984
