5
Coordinates from ORCA-job orca E -11381.406255552492
  Tm  0.04114103406506     -1.12359538959599      0.54213289494080
  Br  1.84273025656578      0.53895609967124     -0.62494524603078
  Br  0.91025092413742     -3.49913193643530      0.93985455795801
  Br  -0.50844818081048     -0.43443758543281     -2.02921912978214
  Br  -1.59118403395776     -0.12883118820714      2.24423692291411
