4
Coordinates from ORCA-job orca E -1926.566263367264
  Cf  0.01128808090913      0.06750524201670     -0.07040626734548
  S   -0.93650337172232     -1.45190632031434     -1.88108177622650
  S   -0.97125358174619      2.35855735634153      0.28171442966643
  S   2.49295887255937     -0.15226627804389      0.23317361390555
