4
Coordinates from ORCA-job orca E -1016.626120348775
  Er  0.19173335224175      0.27310853121713     -0.49605687662309
  H   -0.79095926092216     -1.15192359314792     -1.44024117856305
  H   -0.76988214575285      1.81386527404405      0.25260354237950
  H   1.96559805443326     -0.11316021211327      0.24709451280666
