43
Coordinates from ORCA-job orca E -1474.081650172950
  La  0.53874235059545     -0.49875185215196      0.10175810281931
  N   2.45908733815978      0.99592959736698     -1.02067652899805
  C   2.63748461019296      2.29427899011448     -0.34030818123301
  C   1.29222646872531      2.97936884526034     -0.18675290720739
  N   0.40989755860191      2.20716829813962      0.69926773585078
  H   3.33169275654990      0.48111156759143     -1.05449623849953
  H   2.17334357471752      1.14442875972521     -1.98372850772160
  H   3.32544554755502      2.94781201664864     -0.88273999205086
  H   3.06619498414633      2.09605852914109      0.64305814416548
  H   0.80380647175751      3.04104441465915     -1.16070045117603
  H   1.44697702175915      4.00064784543233      0.16994640746895
  H   -0.55672273756855      2.45310710145848      0.49353808744831
  H   0.59531705945389      2.43039619990314      1.67427933648060
  C   -2.76468195448175     -0.43597945836191     -1.09282231547754
  C   -1.98495433950683      0.88457177317814     -1.03018154188836
  O   -2.49343377290592      1.86860570912716     -0.49969851333042
  O   -0.78743269405243      0.80018643395390     -1.48570010774029
  N   -1.81072163963714     -1.55313498541143     -0.96703285359209
  H   -3.34319763732691     -0.46548260137645     -2.01884736546062
  H   -3.46999528783947     -0.46443280611800     -0.26517171891356
  H   -1.43694891370516     -1.79744470209885     -1.87726543828021
  H   -2.25516086297039     -2.38528658193933     -0.60215568179355
  N   -1.40107645757109      0.04544001251085      1.97422524115218
  H   -2.05909894157703      0.72315240336567      1.59456731153230
  H   -0.92907822856282      0.49796283565892      2.75977457682063
  H   -1.94691263679363     -0.71410544826745      2.36539610465316
  C   2.46128920077478     -6.86843945133262     -2.54717813963841
  C   2.73678283840602     -5.70514810146737     -3.25358351618801
  C   2.37004557954361     -4.47528864402748     -2.73054517948027
  C   1.72547044470696     -4.40960736490340     -1.50048340547127
  C   1.45028127798946     -5.57497258563896     -0.79380197520127
  C   1.81916091807493     -6.80373159691875     -1.31753515513253
  C   1.32405455161017     -3.08601221227163     -0.93604849884592
  O   1.61086149621666     -2.02765485378374     -1.58140098923196
  O   0.70134659742113     -3.04346886952204      0.16124435333880
  H   2.74914419778164     -7.82830332517410     -2.95529941061142
  H   3.23805272846811     -5.75874415454074     -4.21049823173666
  H   2.57530336175970     -3.55643343876377     -3.26133507863849
  H   0.95278236291828     -5.49874700711745      0.16265504172252
  H   1.60873224526601     -7.71131306407221     -0.76809748530562
  S   1.10417767936630      1.46174121860546      4.11843958391046
  C   1.69380391835736      0.45245813263281      2.98720639427989
  N   2.06631096362302     -0.25518757921373      2.12472898720173
