4
Coordinates from ORCA-job orca E -6276.067102193952
  Lr  0.22308435034519      0.12342346324995     -0.37109593238666
  Br  -1.20657302336981     -1.56222155899898     -1.90689126152589
  As  -0.99043203414352      2.34473589207744      0.36211020174971
  Cl  2.57041070716813     -0.08404779632841      0.47927699216284
