4
Coordinates from ORCA-job orca E -1226.064901702244
  La  0.15386961537036      0.21239553498518     -0.36243277724390
  S   -1.12863014602641     -1.61977277230377     -1.90850616785686
  S   -1.14557076342845      2.47015707623960      0.41253334359364
  S   2.71682129408450     -0.24088983892102      0.42180560150712
