5
Coordinates from ORCA-job orca E -767.651560570986
  Gd  -0.20263342065958     -0.66652291477223      0.00007479074829
  H   1.94122763970139     -0.79313678494445      0.40854001505606
  H   1.60651047365357     -1.50480963563003      0.79670695503479
  H   -1.11212728538742     -1.68669678275960     -1.44058811509202
  H   -1.53848740730796      0.00412611810631      1.30732635425287
