7
Coordinates from ORCA-job orca E -2792.671601703672
  La  0.00006368504116     -0.00018760134013      0.00040673085225
  Cl  0.00710580996447     -0.00640851000572      2.75945600171271
  Cl  0.00695293771602     -0.00630921219110     -2.75955510947910
  Cl  -0.00701065395222     -2.75900519754322     -0.00216970057547
  Cl  -0.00694701649276      2.75907129389312     -0.00230534882245
  Cl  -2.75935493970876      0.00637514122933      0.00200394600596
  Cl  2.75920017743209      0.00645408595771      0.00215348030611
