4
Coordinates from ORCA-job orca E -1155.195522574974
  Pr  0.08521098978719      1.24996164231349      0.27865504010026
  Al  0.07513304929541     -1.95765559788836     -1.73429972268997
  N   -1.13620162138723      2.45537912054462      0.51065742455927
  P   1.57234758230463     -0.92579516496975     -0.49161274196955
