5
Coordinates from ORCA-job orca E -3331.547395066048
  La  0.21275656738971     -0.78054798386800      2.54034865411696
  Sr  3.19820974046997     -0.48067818863774     -0.06053360320789
  Te  0.65016847526561     -2.31372438693199     -0.15155390458839
  K   -1.30204282130398     -0.46050335738959     -2.11007592353496
  Se  -2.06460196182133     -0.61158608317267      0.85387477721427
