24
Coordinates from ORCA-job orca E -2070.716844836722
  Lu  0.29902562201264     -0.29031388025738     -0.25359760474332
  N   2.68027247157636     -0.11332790824312     -0.54087772868639
  H   2.98441173806680     -0.82071530275832     -1.21082987890627
  H   3.29265819926587     -0.23125340984426      0.26434482132572
  H   2.96508782496716      0.77174309789347     -0.95836623145078
  C   -3.81866322761856     -0.28272999058172      1.26626742242555
  C   -2.80274562258240      0.46020987856113      0.44567140319860
  O   -1.43366192899147      0.28930542208511      1.02936613731624
  H   -4.80412479801895     -0.13022262327342      0.82720819251825
  H   -3.85995894084020      0.09748159532895      2.28790727569185
  H   -3.61995923293138     -1.35280221030449      1.28234773153591
  H   -2.99023604861598      1.53033469986914      0.40711829281640
  H   -2.71870836359376      0.06728626258221     -0.56669639426976
  H   -1.49500585275003      0.46541438012071      1.97603653658411
  O   0.14162415992074      1.73734354567841     -1.34211434729470
  H   0.13662745479968      2.66502189278261     -1.07464459015012
  H   -0.08395038605137      1.72069168011028     -2.28282776760323
  N   0.67335594159250     -2.22016873401141      1.13814402464681
  H   1.08835979257874     -2.96652443661690      0.58046055063607
  H   -0.21706704127302     -2.60697470325548      1.44987007445181
  H   1.24431939952156     -2.16414499315848      1.97943295785905
  S   -1.20152574709776     -2.73421476872549     -4.08715939645522
  C   -0.72101015864014     -1.93112958966854     -2.85834510344199
  N   -0.34092525529692     -1.29800990431298     -1.89131637800478
