50
Coordinates from ORCA-job orca E -1751.758981700413
  La  0.56117438226368     -0.58975760106570     -0.18387692325429
  C   1.37748861407138      2.73394024092430      1.36102228971121
  C   0.19452368607456      3.57622448354490      1.79689801543824
  C   -0.28913519832682      2.80575602727770      3.02411892749988
  C   -0.08236029884713      1.35739010048263      2.60383845928313
  O   0.99195970698688      1.37149431222005      1.63182808035251
  H   2.27203529617571      2.96458492347673      1.94766573617110
  H   1.61262449211029      2.81432942163113      0.30369777240682
  H   -0.56214300052159      3.56850444185219      1.01283167663955
  H   0.47505771580618      4.60472809260832      2.01649833190042
  H   -1.32711879293956      3.00794936247050      3.28054790814399
  H   0.32863538440732      3.04208045107065      3.89171236823815
  H   -0.97710914509312      0.95636930821088      2.11980131219260
  H   0.19689605213459      0.69054738354464      3.41566708060985
  C   1.90888692142983      0.54826677625685     -3.88594767990345
  C   2.80099401351407      0.83595965229062     -2.69809145951707
  O   2.03871097467665      1.18531478832154     -1.53241665791722
  H   2.51355034916603      0.29499421748830     -4.75707644682417
  H   1.30287246908638      1.42061691291051     -4.13708712779964
  H   1.24673417428016     -0.28751596652215     -3.66288374435550
  H   3.50020850347288      1.64681614960325     -2.91585937959808
  H   3.37283902918394     -0.04897555433597     -2.42326608686100
  H   1.28747826949981      1.74653558533159     -1.78816196542125
  N   0.32907067981801     -1.69925465617241      2.10254009096284
  N   -0.73757776755316     -1.79695584811107      2.62038977766547
  N   -1.76800352823236     -1.86853957197836      3.12024399814491
  C   -3.88144604048106     -0.67657866505417     -1.63296985661583
  P   -3.21150634986097     -1.11930614412619     -0.02920217023573
  O   -1.73856816833094     -1.42248399414780     -0.12374784969454
  C   -4.11431406727108     -2.54053729745589      0.58231467803506
  C   -3.58325635459060      0.24279416588590      1.07436315303294
  H   -4.94793718842515     -0.46275914097567     -1.57128424322798
  H   -3.71335477052438     -1.49655180327465     -2.32998052472981
  H   -3.34407918766131      0.20526921913267     -1.98316979030986
  H   -5.18212397859301     -2.33258477619625      0.64246979729284
  H   -3.72352910758396     -2.77626452402265      1.57238269477261
  H   -3.94334955872922     -3.38615959354243     -0.08238954763738
  H   -4.65616913291421      0.43413898188137      1.09438786694551
  H   -3.06025064369634      1.12928276145059      0.71388676890931
  H   -3.24038380657157     -0.02427068663892      2.07427122767160
  N   2.97928628694752     -0.95992520891128      1.03992950499362
  H   3.47246391349142     -0.13027592208334      1.34359520568086
  H   3.64096767251343     -1.57889462687866      0.58956003952186
  H   2.61186165469570     -1.42516538744695      1.86563986715707
  Cl  -0.94307963027498      1.68153785809392     -1.17716983489245
  C   2.08555815694060     -2.85065857854485     -2.51637909834918
  O   1.40780004244064     -1.96166558100043     -1.69688780782014
  H   1.46862442302324     -3.72119068371631     -2.76870469144115
  H   3.00059763079071     -3.23136654396554     -2.04160253911706
  H   2.38749522202099     -2.38438726179411     -3.46554720385119
