33
Coordinates from ORCA-job orca E -2278.955159092960
  Dy  0.00887689634435     -1.05146387295099     -0.35143630333780
  C   -0.39298713869656      1.14336873500977     -1.23882797982292
  N   -0.70679614002344      2.25557089363596     -1.15798025274308
  C   -4.06555494287116     -2.98537316472705     -0.95916018736529
  C   -2.76130447870458     -2.66310038423462     -0.72644066132106
  N   -2.31015834092617     -1.36699622607087     -0.64016777985985
  C   -3.23940387042321     -0.37491207847718     -0.84273967565257
  C   -4.55858105531363     -0.63223354776641     -1.07830037197767
  N   -4.89008331846521     -1.93367443119647     -1.08187890928904
  H   -4.44012413005705     -3.99316493962020     -1.04770975207951
  H   -2.03951074555558     -3.46513141952565     -0.63320760772900
  H   -2.89373014774480      0.64989742269731     -0.84531555722581
  H   -5.30292406682097      0.12714074332928     -1.26035418171459
  C   3.96875494652530     -0.37585557375824      0.72706982193425
  P   2.55465262058796      0.42337974304264     -0.09866197094210
  C   3.16227602041075      0.72370281668341     -1.78732025018451
  C   2.50693764554732      2.08790760822946      0.63451913481134
  H   4.86963279493765      0.22931308496661      0.62531523982765
  H   4.14709120205574     -1.35535755077540      0.28507724612832
  H   3.75688484432154     -0.51126819631368      1.78733224184174
  H   4.10686178649300      1.26755367176749     -1.76396342013901
  H   2.42692712911856      1.30919074055103     -2.33780737690453
  H   3.31170070479468     -0.22492231793061     -2.30240314310722
  H   3.46659122348238      2.58911662119054      0.50679677609566
  H   2.28846246551586      2.02523769465876      1.70051721791566
  H   1.72640387279239      2.67327347528377      0.15031657554021
  Cl  1.02850065010680     -3.07767604423492     -1.27866095359412
  C   -0.49282748923903      0.28314595636070      2.57758670998251
  O   -0.10208339615546     -0.98633399541272      1.98503870912521
  H   0.29069845682106      0.63653520563251      3.24190297379459
  H   -1.43263208790880      0.16711937432961      3.10983854522193
  H   -0.61872162624523      0.99333407197538      1.76020849660217
  H   0.08856971529550     -1.63402411634919      2.66931664616845
