44
Coordinates from ORCA-job orca E -2202.918216551880
  Eu  0.30750922293224      0.95387845076166      1.04761715706402
  C   -1.22967984402075      1.76976974556487      5.20743473975668
  C   -0.83186317512133      2.14141515056004      3.82280877490829
  C   -0.87086593306583      3.46470588450784      3.38708046866591
  C   -0.50408240144997      3.88429146845496      2.11029351756428
  O   -0.08322722361611      3.06607681315400      1.19711199755145
  C   -0.57359778986657      5.31910849312071      1.72093640007675
  O   -0.45429557548892      1.17024315694749      3.05410468099142
  H   -1.55638801481642      2.62690413076322      5.78656450958140
  H   -0.38197281180562      1.29603475748448      5.70484589222675
  H   -2.02857116738936      1.02859824090619      5.16384891111093
  H   -1.20472496638075      4.21487484855755      4.08562387756750
  H   -0.96591275232104      5.94270127514231      2.51725478658191
  H   -1.19849716047221      5.41987324011868      0.83288772808022
  H   0.42596689491874      5.66256750330343      1.44995166132965
  C   3.98927000413087     -1.72953358558752     -1.87402699607126
  O   2.96211536014342     -1.03447552175705     -1.10289104792258
  P   3.34935913528861     -0.06844455152993      0.09550236046272
  O   2.32307353181963      1.22469998413518     -0.24216878524031
  C   2.80708953381744      2.21206381043750     -1.20417652856787
  O   2.20194232835921     -0.55460581977479      1.23429296489323
  C   2.55773147122568     -1.72179943918600      2.03742693144154
  H   3.80427942530480     -2.79401629339864     -1.78189971231496
  H   4.98166486847428     -1.48554070391945     -1.49920833900890
  H   3.89107889301184     -1.41651856496135     -2.90764845202407
  H   2.72706220503813      1.80330817189136     -2.20753866537633
  H   3.83853277739065      2.46775743328893     -0.97195461848012
  H   2.17986353801773      3.09123490982602     -1.09881359327561
  H   1.88127937854118     -1.74800486902122      2.88545017235049
  H   3.58096677703636     -1.61948001418480      2.39234625221824
  H   2.44691831378307     -2.61895266976139      1.43468596220777
  C   -1.65146256346092     -1.93729061767421     -1.10569069997593
  P   -1.99861477893752     -0.32234921465043     -0.34575183103165
  C   -2.74558997937957      0.65831272846371     -1.68085603479596
  C   -3.37075366460304     -0.64556615259468      0.80191163860760
  H   -2.55620763842221     -2.33773704795185     -1.56351052563678
  H   -1.30301048422716     -2.64335918590574     -0.35256047794135
  H   -0.88475385993662     -1.83921133115095     -1.87329324139009
  H   -3.60477963636213      0.12962438340747     -2.09419004776708
  H   -2.02429209047827      0.82895107806273     -2.47902433625982
  H   -3.07897516214033      1.62304934934004     -1.30059248155748
  H   -4.20267294993646     -1.10934697771630      0.27148592951174
  H   -3.71597739803580      0.28661664305823      1.24755617523635
  H   -3.04923463749900     -1.31312909053254      1.60047292465106
