4
Coordinates from ORCA-job orca E -1172.085305012682
  Pr  -1.03078849840931      0.21070183771916      1.39354327869080
  Sr  -0.83230145642354     -0.84563932224058     -2.21218466963507
  B   -0.15916049305058      0.98185728043524     -0.47338481210192
  K   2.61874044788342      0.47497020408617     -0.14457379695382
