26
Coordinates from ORCA-job orca E -1806.002951305410
  Nd  0.46232250236141     -0.36239711620354     -0.33917163283397
  O   -2.09242938913488      0.74977230957011     -3.74317341717834
  S   -0.83798437452546      0.69143380104033     -3.01164297383353
  O   -0.29362766316137     -0.67657826435200     -2.79224697613242
  O   -0.84401261539382      1.38963123510210     -1.69452918531415
  C   -4.56110340565156     -2.37063584906333      0.53334894711415
  C   -3.47236626406462     -2.64419162696546      1.34379522813995
  C   -2.23798125528140     -2.12050320971299      0.99857734230119
  N   -2.05212848619309     -1.36076698123461     -0.08303775268148
  C   -3.10432965445037     -1.10268830341137     -0.86092530939799
  C   -4.37398471011237     -1.58551087968580     -0.59201801398213
  H   -5.53990235201337     -2.76520030690287      0.77323196321913
  H   -3.56599065724308     -3.25601047615073      2.22911927698474
  H   -1.35962277489294     -2.32474776544717      1.59638563269198
  H   -2.93046550775049     -0.48832501837290     -1.73467929579462
  H   -5.19046018763886     -1.34561499328165     -1.25777260848656
  N   -0.02619696812783      0.49347864175361      1.77504482388005
  N   -0.28610672797165      0.99285298594522      2.82409170737382
  N   -0.53640778048168      1.46691891271192      3.83101140125247
  C   3.57463137213481      0.98515156153787     -1.18954709003316
  O   2.37332084634106      0.38365542417974     -0.85381274619620
  H   3.54083566120834      1.42535566443149     -2.19478506589419
  H   4.40165372509468      0.26434640665762     -1.17771115701453
  H   3.83335232376094      1.79000520551676     -0.48975524804929
  C   0.88852896094530     -2.86472508335875      0.21381594866602
  N   0.95437783117907     -3.97217522456793      0.55141008057890
