4
Coordinates from ORCA-job orca E -608.089703716249
  Nd  -0.59234312537596     -0.38116103577560      1.42854231828443
  Li  0.20499460394003     -0.67284431411714     -1.93939780882529
  Be  -0.12842771117014      1.52402096142958     -0.67681005674890
  B   1.11226623260607      0.35187438846316     -0.24893445271023
