4
Coordinates from ORCA-job orca E -478.429081482776
  U   -0.08309886248694     -0.12327891056126      0.21660429633973
  H   -0.63095264850907     -0.91079284967097     -1.59391728415329
  H   -0.63557900814337      1.83442813645313     -0.03235251250621
  H   1.94612051913938      0.02153362377910     -0.02693449968023
