4
Coordinates from ORCA-job orca E -33.190593455027
  La  -0.00710543704884     -0.01594700017060      0.03096361514547
  H   -0.75277989467060     -1.08361147747607     -1.64740571966662
  H   -0.75981349922640      1.97005965022715      0.08663952530414
  H   2.11618883094584     -0.04861117258049      0.09320257921702
