26
Coordinates from ORCA-job orca E -2503.842616093193
  Tb  0.67016376949873      0.29327421144309     -0.12308934360991
  C   1.43068860274167     -2.78622114734671     -1.08801391657426
  C   2.68017263254229     -2.10649835354185     -0.50883412916607
  O   3.74101378876257     -2.69154108764597     -0.54086952046609
  O   2.47415098838361     -0.90530720190331     -0.05664275949089
  N   0.18888136795606     -2.15587165893316     -0.61515745005640
  H   1.48440072174663     -3.85314441218729     -0.87324600177531
  H   1.48878851312607     -2.65509406372617     -2.16866418009264
  H   -0.09275816226243     -2.52088507884125      0.28879192127341
  H   -0.57397570764159     -2.31308833657900     -1.26155901596462
  C   -1.44029292317844      3.82366223881579      2.36499204220879
  C   -0.42342736060646      3.03610994504367      1.69885010762647
  N   0.36699893465782      2.39843281073719      1.16724714069785
  H   -1.84335373158240      3.21418392995971      3.17343650738765
  H   -2.21971000260334      4.03677148612311      1.63396352040037
  H   -1.00187975630606      4.74202502611179      2.75009916851465
  N   1.32093269901645      1.22068341371857     -2.72531293261103
  O   1.63631151077565      1.64308070030069     -3.80244851228970
  O   0.90347223136353      0.03836682827555     -2.54587240052289
  O   1.38365766327187      1.94235402073093     -1.66936751219758
  S   0.40946360438296     -0.74872466730724      2.53259918796692
  C   -0.79035315133018      0.21100956197813      3.20114165132181
  N   -1.59112096787744      0.89387134723671      3.68848471215591
  S   -2.09509071072720      0.10376491723789     -0.63301479690756
  C   -2.54288275683273      1.70854473077321     -0.45250877843307
  N   -2.86305179727763      2.81594083952587     -0.32700470939581
