31
Coordinates from ORCA-job orca E -2247.970496131506
  Sm  -0.23955766024388      0.63097674228581     -1.13630784848580
  C   2.49506963991464     -0.64845985974162      1.77062332428571
  P   2.16330688553929     -0.70476550129789     -0.01611017905653
  C   2.02916824450931     -2.47907796537579     -0.39243652646058
  C   3.72504933355082     -0.19588565136812     -0.79200347185184
  H   3.37404250860262     -1.25018602934643      2.00278168995035
  H   1.64797617741738     -1.04866190077009      2.32713788076927
  H   2.67823665808835      0.37430156322733      2.09717208591452
  H   2.92301198314145     -3.00129788875583     -0.05000499146966
  H   1.92291844399450     -2.62654253587673     -1.46659492718549
  H   1.16181657537335     -2.90898517708577      0.10824810178214
  H   4.53970961743075     -0.82844369640430     -0.43885890415166
  H   3.95490280768338      0.83935464688640     -0.54355124168254
  H   3.65286635500101     -0.29140087758879     -1.87487147885133
  O   1.01685161787885      2.49834009391220     -2.05554314864648
  H   1.26622898585047      2.42345459220812     -2.98729055035845
  H   1.29926332830266      3.37375010418921     -1.76464490111218
  C   -2.32129196925006     -2.01632583596299      2.13114490741177
  C   -1.64246346862319     -1.04220218003455      1.41998674582518
  N   -1.47727710679053     -1.13945760262083      0.09220147601327
  C   -1.99808289674248     -2.21511861141094     -0.51314521074859
  C   -2.67683945655280     -3.18138784551468      0.21822392978383
  N   -2.83562286676109     -3.08426983257088      1.53074454703018
  H   -2.45171759111690     -1.93318744695647      3.20217446936112
  H   -1.22992323307021     -0.17497752909532      1.92473627549093
  H   -1.86920759359826     -2.30219764975968     -1.58364151807375
  H   -3.09717325984331     -4.04840365627148     -0.27440509642648
  S   -4.37765467747312      3.87049968728071     -0.78069594936190
  C   -3.06471021504229      2.90213079489576     -0.79037669508855
  N   -2.12546620505836      2.21166893326908     -0.80077565189369
  I   -0.16853096211252     -0.54944188434522     -3.69771714271270
