5
Coordinates from ORCA-job orca E -978.934208203439
  Cf  0.83482587775077     -0.12638925050381      0.34247676398182
  H   2.38746035170205      1.14146339544295      0.48755292275767
  Li  0.06380485345864     -3.10742735567932      0.97236325730266
  Mg  -1.86729200777051     -1.18143672811506     -1.24330023522605
  C   -0.72430907514095     -1.37325006114475      0.51296729118390
