5
Coordinates from ORCA-job orca E -10932.888256508084
  Cm  0.15109212280601     -0.93217604675163      0.21180830115236
  Br  2.19920863061357      0.81573403488617      0.19516612370790
  Br  1.12535149027645     -3.36800974275058      0.81493451602783
  Br  -1.13409948226258     -1.14319089978119     -2.14538327759781
  Br  -1.64706276143345     -0.01939734560278      1.99553433670972
