5
Coordinates from ORCA-job orca E -562.916293362892
  Pu  -0.02174727814274     -1.13433174948227      0.81097169216939
  Li  1.65690445194588      0.85493086920734     -0.88546938771981
  H   0.56936324815323     -3.04513142437560      1.15648935562920
  H   0.50506587759921     -0.43452694894845     -1.15814180720820
  H   -2.01509629955558     -0.88798074640102      1.14821014712942
