7
Coordinates from ORCA-job orca E -2424.959001964243
  Cm  0.00001756360415     -0.00002110243759     -0.00009475469321
  I   -0.00091009407066      0.00075828174815      2.93900906222423
  I   -0.00091973291482      0.00076327960372     -2.93922843325753
  I   0.00089195663593     -2.93914471908601     -0.00080311178557
  I   0.00089217868158      2.93909507346401     -0.00079368349479
  I   -2.93909928458561     -0.00073051598386      0.00095285825205
  I   2.93913741264942     -0.00073029730841      0.00094806275482
