4
Coordinates from ORCA-job orca E -3588.034590641937
  U   -0.25155895786667     -0.30503743097988      0.35943551088530
  Br  -0.85396965465836     -1.31828051946417     -2.00289676014813
  I   -0.90848813895922      2.47759516779055      0.13131873426576
  Sb  2.61050675148425     -0.03238721734650      0.07554251499707
