4
Coordinates from ORCA-job orca E -798.988500457390
  Es  0.72662889870067     -0.21801217575568      0.60860121941403
  Li  -1.42857077216013     -0.77061711271778     -2.01365424409548
  Li  -1.48199948419131      2.06457317886668     -0.34666644617969
  H   2.78043135765077     -0.25405389039323      0.31511947086116
