45
Coordinates from ORCA-job orca E -2198.918002112768
  Yb  -0.42387593808338      0.41013256723177     -0.41029470179467
  C   0.49436781142631      3.80936165186541     -0.17523582264710
  O   0.87985400615913      2.44234112062128     -0.48043255235406
  H   0.65000235937411      4.44584178815906     -1.04226581815046
  H   1.06546030573540      4.17856065184816      0.67244829120776
  H   -0.56013287621676      3.79069287960825      0.08209877159141
  H   1.82643417733390      2.43010168238112     -0.65095276087391
  C   2.23679482075091     -1.65429974247675     -0.57654731039603
  C   3.08910311714213     -2.46246245933978      0.38085146164040
  C   3.44039568314314     -1.42595054334652      1.44689833890645
  C   2.13655063979466     -0.66694772174914      1.59700904211207
  O   1.52073081482995     -0.69465475361721      0.26653635379201
  H   1.49603634238594     -2.24223875791973     -1.11849408499965
  H   2.84480155863512     -1.09280538179804     -1.28637438714854
  H   3.96301599291769     -2.88259547453033     -0.11000070703713
  H   2.51283405973013     -3.28019827327295      0.81472404216925
  H   4.23265668648840     -0.76513451071295      1.09587037149006
  H   3.75925292709784     -1.87119636008438      2.38562006385883
  H   2.26122994289503      0.37498904221174      1.88671230360607
  H   1.45726983589759     -1.16437033417705      2.29048437412374
  O   -0.43340781224555      0.50446539039020     -2.82246261730580
  H   -0.81281878375481     -0.13690402555539     -3.43314900359243
  H   -0.06612611902434      1.20205746723493     -3.37670068310889
  C   -3.57835082377217     -2.19951920336641      0.20190378026116
  P   -1.89163180740112     -2.22871611496633     -0.49193334362603
  C   -1.06663783783661     -3.50072432592461      0.52355087290708
  C   -2.13041044232204     -3.08308030206788     -2.08593456579263
  H   -4.00039250259618     -3.20418310505719      0.22854232886049
  H   -4.22846664840851     -1.56980956321988     -0.40528949277541
  H   -3.56143189592763     -1.80364296759830      1.21709721413225
  H   -1.64892698132951     -4.42217940464640      0.53340856949780
  H   -0.95219538187696     -3.15118773601272      1.54933451483505
  H   -0.07787442308453     -3.72151304020228      0.12240339006530
  H   -2.63170616760422     -4.03950047458722     -1.93691392041923
  H   -1.17021407573392     -3.26936985644150     -2.56694945148799
  H   -2.74352505540855     -2.47698261908381     -2.75305732233843
  C   -3.22831821631666      1.78235345820443     -0.68000244465052
  C   -3.15672893856202      1.89951738552569      0.82224556394759
  O   -1.85433406872531      1.38874322303884      1.23647144942527
  H   -4.18268472692170      2.15768024669157     -1.04429281145648
  H   -3.16019669777905      0.73744568964348     -1.00153954624325
  H   -2.45079968707627      2.37919841040296     -1.16732487355613
  H   -3.93382899276522      1.30996267269768      1.30523166365310
  H   -3.24403284630822      2.93562498054780      1.14438340295585
  H   -1.76074133465593      1.49259674345057      2.18842205671584
