30
Coordinates from ORCA-job orca E -1688.486359460186
  La  0.80806441778507      0.48750579447375     -0.36877368208760
  C   2.30759982646855     -2.57951019473057     -1.01489263322861
  C   2.31592112074425     -1.75259730713921     -2.31195318382250
  O   2.82163982639899     -2.23086817405799     -3.30749624153315
  O   1.80048653955739     -0.57059246898777     -2.19369854438660
  N   1.27307358438040     -2.12758890293123     -0.07379912565648
  H   3.28125362848066     -2.41882402819856     -0.54984311148381
  H   2.22520540691020     -3.63487369380297     -1.27352859935307
  H   1.52251523561234     -2.32810234049818      0.88659573602795
  H   0.38392632142820     -2.58281946877709     -0.24505164377800
  C   -1.62211259496786     -0.88195164075810      2.03087282760972
  N   -0.89035653924973     -0.45153641539016      1.22588614208723
  F   -3.28072755075782     -0.66342603960878     -2.84821787518949
  P   -2.82495345829650     -0.59923138293255     -1.33941486406007
  F   -3.26498695696010     -2.07121026109984     -0.95886132806139
  F   -1.28439680901046     -0.97401903122401     -1.62119429597497
  C   -0.94402640354862      4.23111119406917      3.35918589182768
  C   -1.52095839822866      4.17948322475593      2.10223104675260
  C   -0.95052576025656      3.36631071232779      1.13675754520454
  N   0.14123705677830      2.62806554123041      1.36356649425302
  C   0.69284391010259      2.68524432801843      2.57966853986650
  C   0.18631567865118      3.46897377619781      3.60178635834374
  H   -1.36917238314971      4.85144271413616      4.13739178020484
  H   -2.40552716820374      4.75122171598630      1.86145134613092
  H   -1.37787775676539      3.29746553025652      0.14504908549585
  H   1.57625886411029      2.07793155591319      2.73033141778856
  H   0.67383870565861      3.47013364769782      4.56602455908497
  I   3.59590073968303      0.66433193435973      1.14377135517510
  C   -0.82201711632552      2.02351559909453     -1.84947776124026
  N   -1.72654196702941      2.58701408161922     -2.30836723599730
