4
Coordinates from ORCA-job orca E -686.312390409354
  Bk  -0.05619395160127     -0.08623563826288      0.15192999071945
  H   -0.63069390366761     -0.90790512358132     -1.55867691040750
  H   -0.63364534106779      1.80241878945447     -0.01804195303909
  H   1.91702319633666      0.01361197238973     -0.01181112727286
