7
Coordinates from ORCA-job orca E -4876.489713222660
  Lr  0.15554469208242     -0.06333055287822     -0.63973791968950
  Mg  0.45151207942956      1.57424319840425      2.13995857018782
  Si  1.08922913899512      0.02989941247426     -3.45541835935347
  Sb  -1.50961324052649     -2.89627102100198     -0.98291342636639
  Se  -1.14773612571303      2.15016986771213      0.11609305701118
  P   -1.09024633938249     -0.81462030637397      1.79905818233030
  S   2.05131979511492      0.01989940166351      1.02294989588005
