5
Coordinates from ORCA-job orca E -661.868781980354
  Cm  -1.06878022562039     -1.43700988454451      0.70922905830624
  Li  1.77751894192383     -0.89678314827206     -0.90893897481189
  Li  2.12454497004888     -2.48260320743699      1.57034258558344
  Li  -0.60574000777029      0.17325387752583     -2.31691920068391
  H   -1.53305367858203     -0.00389763727226      2.01834653160612
