7
Coordinates from ORCA-job orca E -3443.940796480588
  Bk  -0.00424190289957     -0.19598739660302     -0.18974381207128
  Cl  0.75719901447145     -0.02949118910846      2.34487536649049
  Cl  0.44199852093329     -0.10965483518236     -2.57087155397878
  Cl  -0.50338948828873     -2.56334722096598     -0.03348435311408
  Cl  -0.70293503385922      2.35881993274794     -0.06748008064587
  Cl  -2.50669630202306      0.45925685423658      0.11692994713900
  Cl  2.51807519166586      0.08039385487531      0.39976448618051
