4
Coordinates from ORCA-job orca E -1778.221057399164
  Dy  0.09081900334820      0.13860072633903     -0.25188385596513
  I   -1.15461072641741     -1.69073825831068     -2.00030512874168
  I   -1.14390369973315      2.58481833819968      0.41521277976998
  I   2.80418542280236     -0.21079080622803      0.40037620493684
