44
Coordinates from ORCA-job orca E -1495.997534358186
  La  -0.51859196270908      0.17048834085962     -0.33381867637413
  N   -0.04091335173927      0.09548589048527      2.28142709606053
  C   -0.48898755309421      1.12333794931665      3.00738301329868
  C   -0.21611458914108      1.26567677953378      4.35504532432348
  C   0.56104001290176      0.29877882032957      4.96843447919015
  C   1.02847180770518     -0.76994652259309      4.22108763734606
  C   0.70501991443081     -0.84943424700313      2.87456138941946
  C   1.16573712251754     -1.97119905502364      2.00593733596836
  C   1.74990530893310     -3.11560056610763      2.52480640108738
  C   2.15796870044155     -4.11998231689706      1.66018518401121
  C   1.97379048578923     -3.95483742242940      0.30028292836250
  C   1.37440875714686     -2.78874144688455     -0.14256990164934
  N   0.97421908806618     -1.81906583635651      0.68488105418659
  H   -1.09028808926556      1.85746705754672      2.48367839800679
  H   -0.60109450127265      2.11423048177529      4.90018016338317
  H   0.80649755134017      0.37358186703881      6.01852311695772
  H   1.64694451365294     -1.52062125079224      4.68681050648407
  H   1.87496541374574     -3.23999394064260      3.58876070992020
  H   2.60940400462338     -5.02107224914765      2.05110652762337
  H   2.27102628824033     -4.70960181122427     -0.41214721117954
  H   1.20520652205870     -2.63602200518736     -1.20212868176377
  C   -0.69997121887366      4.87576027772128     -0.07369795670066
  C   -1.25012488011308      3.48874618301155      0.06515597443902
  C   -2.55777568781132      3.30210178089812      0.52782214215251
  C   -3.18476037650123      2.05731205103344      0.66752468478324
  O   -2.61038803001933      0.94334322223025      0.43451304943125
  C   -4.61032273424079      1.98398644454492      1.12102450889204
  O   -0.46322017244736      2.53802720654655     -0.26039942446556
  H   -1.39839679551601      5.63755976013317      0.25897587043418
  H   -0.44721357579087      5.04806881755211     -1.12021842586197
  H   0.22651813262181      4.95031076364589      0.49547418630255
  H   -3.13658344555298      4.18203801331181      0.75955289914048
  H   -5.03417024964667      2.96230928269362      1.32598041691105
  H   -4.66903194074235      1.36144876843471      2.01401401759083
  H   -5.19664674856502      1.48730224492674      0.34771165505938
  C   2.78323652382029     -0.13297687827010     -4.28137663892444
  C   2.07312205318828      0.11787085485326     -3.04073079207127
  N   1.50555041232572      0.32231893940687     -2.06559881278526
  H   2.83019560069340      0.78412150898338     -4.86459604848932
  H   2.24326780273224     -0.90129278939416     -4.83182972685097
  H   3.79122249101004     -0.47742135568475     -4.06050227611461
  S   0.25087980077260     -2.90291226159387     -3.86585570908934
  C   -0.63214582860465     -2.03167896266004     -2.84281569797539
  N   -1.23865657711069     -1.38947238892145     -2.05755469047103
