4
Coordinates from ORCA-job orca E -1773.234155826416
  Lr  -0.02318014026289     -0.23950640090572      0.05439285702901
  C   -0.78571427245662     -1.26889480521960     -1.78946692700572
  Te  -0.98630027509016      2.46201811206762      0.18920139648322
  Cl  2.39168468780967     -0.13172690594231      0.10927267349349
