35
Coordinates from ORCA-job orca E -2498.000726427219
  Er  -0.49970676528410      0.28380966287841      1.42538402372549
  C   3.71140940841740     -0.55054889644595     -0.73582837303023
  P   2.65564165810342      0.65609139411953      0.04557440250775
  O   1.23252774733023      0.08635184899470      0.18371358492883
  C   3.32364590617354      1.06048130978391      1.65110163627827
  C   2.63469794459299      2.14170902548542     -0.94255188748996
  H   3.74520733322431     -1.45222363334279     -0.12579613490365
  H   4.72027054693564     -0.15423180794403     -0.84597937726328
  H   3.31411568012104     -0.79943593053926     -1.71879468853757
  H   4.35062765930320      1.41245598794154      1.55670322362998
  H   3.30105055669024      0.18007147889564      2.29278989427092
  H   2.71944257851977      1.84576783650213      2.10666145427342
  H   3.64240278040540      2.54434813171334     -1.04198974821365
  H   1.99934483542656      2.88068076210387     -0.45433562028835
  H   2.23911744557739      1.91941203163046     -1.93267223856232
  N   0.12967991291777     -1.32378253687084      3.57287184292706
  O   -0.78314167018750     -1.58342807385004      2.74221851733350
  O   0.64560039741777     -0.19333920851478      3.36713996736942
  C   -3.51253982953272      0.28740995015726     -1.27781038534473
  P   -2.70870257406753     -0.82492510114730     -0.08493923327181
  C   -2.46201527744064     -2.37569757421680     -1.00087948356829
  C   -4.02412843675791     -1.21995617499122      1.10790244510034
  H   -4.41448546634536     -0.17099660691357     -1.68317864542531
  H   -2.83257314520313      0.51200996372112     -2.09865897510771
  H   -3.77969857934596      1.22091542662784     -0.78388215347286
  H   -3.40493185144554     -2.72509491219007     -1.42137151908116
  H   -2.06893424924030     -3.13997939084553     -0.33164757457698
  H   -1.74867416890934     -2.22397397283306     -1.80974066536154
  H   -4.89304367171451     -1.63657759732779      0.59837028050844
  H   -4.32566576197459     -0.31614395535789      1.63705322502944
  H   -3.65709797222846     -1.94207535480019      1.83648552005784
  N   -1.09379700208983      2.94008163604628      1.67209913405795
  O   -1.97076071807431      1.99097753041623      1.71070486308975
  O   0.10847446532226      2.51572427715971      1.49410435678984
  O   -1.37275971663716      4.08021247395371      1.78017833162103
