4
Coordinates from ORCA-job orca E -740.389011723993
  Pa  -0.01374879721438     -0.02598026885570      0.04908140776601
  F   -0.70569832059915     -1.01459790600559     -1.59793817907104
  F   -0.71262204318965      1.89257363933860      0.05244039325166
  F   2.02855916100318     -0.03010546447731      0.05981637805337
