42
Coordinates from ORCA-job orca E -1774.277531535569
  Ce         -0.33032961959186      0.15893232341115     -0.38468172513077
  N           0.76249823557205     -2.19019793938835      0.18440073716545
  C           0.57311583968330     -3.30535740208424     -0.77718924884127
  C          -0.71782115222970     -3.09140737434826     -1.54756483176503
  N          -0.76178294875582     -1.74092752744934     -2.16124970053646
  C           0.04663258772043     -1.58815324589499     -3.40269606598159
  C           1.41383959991512     -0.96810368207872     -3.14839930892656
  N           1.25641503793656      0.33687785039459     -2.46395631482693
  H           1.73380450184392     -2.13324553980872      0.48034180093021
  H           0.23508877757191     -2.37591121918370      1.03606881543751
  H           0.54053146950590     -4.28193097577552     -0.27619948878765
  H           1.43083270747431     -3.33119327180183     -1.45652418952376
  H          -1.57053509098336     -3.16559425841519     -0.86202303937921
  H          -0.83336496251787     -3.88035787706554     -2.30588674214052
  H          -1.73021718682668     -1.53584159127895     -2.39978822292017
  H          -0.51452646542240     -0.93478500621585     -4.08173925242235
  H           0.17243102517973     -2.55551325550932     -3.90990878120328
  H           1.94002763830736     -0.86809524875885     -4.10834249953309
  H           2.03378321947469     -1.60676975205107     -2.51097219854266
  H           0.82430626876893      1.00749091221948     -3.09814072346848
  H           2.16553551138966      0.71255998300337     -2.20304961450017
  N          -2.05887779366139     -0.77987171719360      0.61703648235873
  N          -3.14989406559339     -1.13264186260113      1.00349472710034
  N          -4.17421049337169     -1.46758446125440      1.37182240651565
  C          -0.16291666407098      3.57452272066052      0.18807286218658
  C          -1.22737159954812      4.59503149244845      0.54649117300388
  C          -1.77190886562719      4.04392246733701      1.86925064537166
  C          -1.82410712712627      2.54938439445107      1.60183910162484
  O          -0.69353230680265      2.29709901879801      0.68770341346825
  H           0.78990634076154      3.75806748138898      0.69834601601862
  H           0.00085076485183      3.46741658978195     -0.88964240179731
  H          -2.01136630828331      4.60831207340229     -0.21837874845523
  H          -0.81043341818669      5.60056869204460      0.64109926931258
  H          -2.75754378290249      4.44204092185739      2.12186900316878
  H          -1.08515867893926      4.26442762394193      2.69341503729727
  H          -2.74150438331824      2.25578946973098      1.07747241053374
  H          -1.67253448840049      1.92161062440973      2.48387239559593
  I          -2.14200221401562      1.51265239280678     -2.39402683077329
  N           1.77397692329947      0.70700931461197      1.52533019461544
  O           2.60261245315001      1.08649533709887      2.29797632045259
  O           1.88503712781929      0.89216726201902      0.23805743949467
  O           0.70663358594960      0.08818426233930      1.87006967780326
