4
Coordinates from ORCA-job orca E -596.977000057688
  Am  -0.04236020765586     -0.06667145153414      0.11835246480440
  H   -0.65990391417697     -0.95019741907706     -1.57758768732027
  H   -0.66508280820484      1.84170933803668      0.00814497349206
  H   1.96383693003767     -0.00295046742548      0.01449024902381
