5
Coordinates from ORCA-job orca E -484.138493513428
  Ce  -0.11277184910697     -1.14563041495450      0.22371848176651
  Li  2.33207489383653      0.94530324861592      0.09677956864033
  H   0.75172804574796     -2.90967428296734      0.74832817749614
  H   -0.92303030611760     -1.14941404628808     -1.64168813162530
  H   -1.35351078435991     -0.38762450440600      1.64492190372231
