41
Coordinates from ORCA-job orca E -1122.502760942637
  Ce  0.10015099841955     -0.07014724645210      0.16010859762459
  N   0.80263721319373      2.16415753397843     -0.51780265864377
  C   0.40008591721435      2.89653423763784      0.73064371212125
  C   -1.11328759856363      2.93740329775709      0.81936099835950
  N   -1.69276892357441      1.54364197893430      0.73940085733618
  C   -2.34461270414648      1.08619313035794      2.02161214847054
  C   -1.31132296915916      0.81368292739801      3.08961587328344
  N   -0.36130009957326     -0.26525119664169      2.61114825905672
  H   1.80204115287551      2.31202294786810     -0.68707057024579
  H   0.34935441173892      2.60260902755361     -1.32492714639754
  H   0.82045936244590      3.90404124746565      0.74495075596301
  H   0.85377046099765      2.37781267243815      1.59103111804453
  H   -1.52399136526409      3.53045444952390      0.00096040132119
  H   -1.42536082980253      3.41988463168666      1.74558832623375
  H   -2.43982961669475      1.57147318168712      0.04367731882811
  H   -2.93288741500106      0.19091912628135      1.80215081625376
  H   -3.05261067085846      1.84642976049626      2.35922067777290
  H   -1.79816369338481      0.49596721491721      4.01200951548951
  H   -0.72328571799599      1.69853090525052      3.33092646964183
  H   -0.79612153692355     -1.16957537722286      2.82327831487096
  H   0.45695023675613     -0.25505479227188      3.22673340373370
  N   -1.58643342241470     -1.48148422775854     -0.89239320699964
  C   -0.69398133750475     -2.63851102282710     -1.24140222768834
  C   0.25201633297527     -2.22220773145300     -2.35113316327935
  N   1.01637456471369     -0.97807862334512     -1.96212396793706
  C   2.49636845126752     -1.21303674298827     -1.78040374510246
  C   2.76935641079057     -2.01335928883691     -0.52821873400264
  N   2.23765608217515     -1.26400807403952      0.67615713449821
  H   -2.35563218763526     -1.81469725898556     -0.30375962576706
  H   -2.05255303200550     -1.14888881532422     -1.74165829558780
  H   -1.28122372015388     -3.51189940091887     -1.53162422323872
  H   -0.15385214020124     -2.93906076019590     -0.32827610560443
  H   -0.30493780888384     -2.01643382681645     -3.26634894615608
  H   0.94552677150085     -3.03148480980958     -2.57951548936017
  H   0.93468715843131     -0.32267952450146     -2.74105655810045
  H   2.99185250710361     -0.23893997474962     -1.74343554655405
  H   2.89266655160629     -1.72880197485750     -2.65788879993977
  H   3.84040463189601     -2.18357187671885     -0.41562432794251
  H   2.29412421223571     -2.99347193616927     -0.55177316126373
  H   2.95999050576701     -0.59347201940018      0.96017685261132
  H   2.21068285563662     -1.91844176894765      1.46338494829636
