25
Coordinates from ORCA-job orca E -4479.367926268485
  Tm  -0.10626510628536      0.23576155009921      1.35960203031778
  C   3.11319012623977     -0.28575959471253      1.91136024604347
  C   1.89026034416861     -1.07522598204307      1.51659799066420
  O   1.46817103340941     -0.92808600473556      0.32407973795271
  O   1.06479482155577     -1.36118968054503      2.43385412364891
  N   2.39959191563452      1.02759629689939      2.05083634667265
  H   3.86679924794026     -0.25655986594484      1.13238569384577
  H   3.53329362956292     -0.61419269201608      2.85532386420734
  H   2.76043099482339      1.70910373205917      1.39418602825971
  H   2.53217099355778      1.41334417044709      2.97736164855824
  C   -3.54375894591307      0.45575669105428     -1.06045923506703
  P   -3.50004687613330     -0.28365735443352      0.56293864949602
  O   -2.04397372845712     -0.53902296529844      0.98982075492902
  C   -4.29654233802194      0.82757696524913      1.70910657211118
  C   -4.39341522720276     -1.82610688399913      0.52797804817083
  H   -3.06717992837647     -0.20963532299010     -1.77955789671584
  H   -3.00805598378157      1.40515264744617     -1.03274066228911
  H   -4.57343595073098      0.63466007725425     -1.36894822443264
  H   -5.32393641292771      1.01727658217771      1.39916995752650
  H   -3.74695542473697      1.76902803355271      1.73063842023064
  H   -4.30150438130497      0.38731485314917      2.70560792478608
  H   -5.42643308510904     -1.65642309080665      0.22575428082432
  H   -4.37844622212469     -2.27733703451206      1.51912453058131
  H   -3.91841217344723     -2.50549140009381     -0.17835703139772
  Br  -0.73164132233912      2.75391627274253      1.04713620107558
