4
Coordinates from ORCA-job orca E -3061.846112748185
  Pr  0.71523363171935      0.50455712949308      0.64993236253605
  Ge  -0.69645807195897     -0.07565606539679     -1.69285821855972
  Mg  -2.38532847573775      1.46255199555158     -0.66861004223083
  Te  2.96304291597737     -1.06956305964787      0.27493589825451
