48
Coordinates from ORCA-job orca E -5287.641850618606
  Er  -0.35510800921890      0.27275528451277      0.33653810334653
  N   0.15072256465445      2.48637078587164      1.99446690684860
  O   0.20259072410433      2.53542654168037      0.73303688952951
  O   -0.07859203538463      1.33448417700865      2.42684885342306
  Br  -0.43779684442034     -0.50304102229532     -2.25508897934557
  C   -1.96803301459892      3.16074914253962     -1.71909084206445
  P   -2.97977782280011      2.44751901228745     -0.42949703968230
  O   -2.34084845056487      1.19595303799444      0.15888250499980
  C   -3.22604634554305      3.68918753015132      0.83209815711821
  C   -4.57008317265182      2.04079064405125     -1.13952354124713
  H   -1.77077355802072      2.40160684889657     -2.47665903349603
  H   -1.02320867773101      3.48853684925877     -1.28510259264634
  H   -2.47170285350628      4.01306043872870     -2.17445677121431
  H   -3.71396753430153      4.56991167219578      0.41570030594764
  H   -2.25630344206600      3.97226831354179      1.24040638998262
  H   -3.84164576320503      3.27745589931915      1.63065041853732
  H   -5.04517353497793      2.92704866299215     -1.55827412777489
  H   -5.21267194228882      1.61835876973537     -0.36836295066805
  H   -4.42505792736347      1.30312935252253     -1.92806049624154
  C   6.82722699686719     -0.14190544053478      0.92099322517549
  C   6.56735536055037      0.46574507191709     -0.36344780637477
  C   5.32242522989058      0.50835547591055     -0.86414139712573
  C   4.20735971245509      0.03172738186004     -0.02960836934329
  C   4.51669935833202     -0.84053015525587      1.11763919136219
  C   5.77135310064043     -0.86419296811183      1.59030730615335
  C   2.85793133846838      0.44605263998172     -0.23911430812912
  O   1.90830831729247     -0.05088408411844      0.39855966815788
  O   2.56348151646972      1.37177774510686     -1.15425600433256
  H   7.82618647218730     -0.13706632608204      1.32748210652602
  H   7.39984784286521      0.85059839241099     -0.93632973089511
  H   5.14326891340225      0.87897586356420     -1.86509291216068
  H   3.70744014342901     -1.37776489235506      1.58721924347374
  H   6.01258374198061     -1.44112405364218      2.47209615993405
  H   3.35469692698486      1.77761498498149     -1.52472621452936
  C   -0.34285347904987     -3.93324965320801     -0.29267538449303
  P   -1.52355050969041     -3.01462322710091      0.68360979067461
  O   -0.94613837734866     -1.67228463736695      1.11922918285958
  C   -3.00061576666417     -2.79204320671930     -0.29826411540054
  C   -1.94691823128717     -3.98801452824924      2.12166038872583
  H   0.55670542796802     -4.10349974555553      0.29771208050637
  H   -0.09023219992074     -3.34347124431680     -1.17447433337565
  H   -0.75941644274754     -4.89186270049607     -0.60036586738898
  H   -3.42750324385446     -3.75508691236144     -0.57649839044130
  H   -2.73852052992631     -2.23375935803719     -1.19774186714157
  H   -3.73062524907911     -2.22516637363605      0.27876639200434
  H   -2.35461438205461     -4.95376994531231      1.82556150970123
  H   -2.68478695817196     -3.45071603527587      2.71570961676448
  H   -1.05431739010388     -4.14260400899008      2.72607868375979
