4
Coordinates from ORCA-job orca E -1039.919680141238
  Eu  -0.15649542697549     -2.12345413040159      0.30234154711071
  B   -0.42764786451977      0.34827166995038     -0.65307763935524
  Li  -0.62153407341152      2.41700868832833     -1.39975821961512
  I   1.80216736490678      0.18006377212287      0.31389431185966
