4
Coordinates from ORCA-job orca E -1273.201534506338
  Sm  -0.59141777626715      0.70033329904962      0.42245713013166
  Al  -0.12242271887421     -1.67958081442813     -1.85924814309579
  O   -0.80733402658153      2.46429779562620      0.40987741143895
  I   2.11766452172289     -0.66316028024769     -0.40968639847483
