31
Coordinates from ORCA-job orca E -2000.561593329402
  Gd  -0.11650590000921      0.97956600685557      0.55789655625213
  N   2.27432960196106      0.21183057387084      0.76760895646727
  C   3.03733506922463      0.18635183773022     -0.32894623029130
  C   4.36317523532034     -0.20817570899926     -0.30738354853488
  C   4.91400328369373     -0.58265975096234      0.90403277774091
  C   4.13021905069784     -0.54350077189005      2.04751991268670
  C   2.80863702756859     -0.13889673659600      1.94994498631597
  C   1.91280907065839     -0.03818638251262      3.13986312251704
  C   2.33533832434970     -0.36241801221347      4.42089080319869
  C   1.46013184097602     -0.21567252039729      5.48469469630992
  C   0.17957254462597      0.25438745546983      5.25048368493692
  C   -0.17046652759719      0.55044197179603      3.94751530959753
  N   0.66491623238784      0.40631923626066      2.91530351191205
  H   2.56467018092700      0.51281546788272     -1.24648621923092
  H   4.94091943095198     -0.21224302372729     -1.21926188204335
  H   5.94684028386298     -0.89540665076954      0.96670785346156
  H   4.55924505682474     -0.82073942990337      2.99701330514846
  H   3.33543177504009     -0.72259530159283      4.60085045250988
  H   1.78050038787311     -0.46288900516792      6.48706738234496
  H   -0.53148981500284      0.39189504537577      6.05088533996432
  H   -1.16206779024967      0.92728394330715      3.72144355101326
  O   0.62873515895815      1.95203532540470     -1.25623587237880
  S   -0.17213852538908      3.29373260363176     -1.00112899882696
  O   -1.51655421248017      3.09241249843042     -1.56293476091212
  O   -0.31950631904552      3.11491537320320      0.57903154684785
  C   -3.35662045716398     -0.01285792668975     -0.86583493271394
  O   -2.20806865667646      0.77438698441860     -0.50722260586930
  H   -3.32112913662957     -0.26339866916355     -1.92342223765014
  H   -4.26650518427559      0.53922433370866     -0.64352231153028
  H   -3.33503567139109     -0.92469013247238     -0.27601270484306
  H   -2.18332135999196      1.62853136571149     -1.02406144440061
