4
Coordinates from ORCA-job orca E -640.620955894180
  Cm  -0.06028940031973     -0.09137518058600      0.16258424126783
  H   -0.63349493115537     -0.91295644015471     -1.56813181486429
  H   -0.63891868004306      1.81420690019407     -0.01860867918766
  H   1.92919301151815      0.01201472054664     -0.01244374721588
