6
Coordinates from ORCA-job orca E -2332.672607909848
  La  -0.18100329347259     -0.32430554082563     -0.00240923661430
  Cl  0.91171727115797      0.37718219515631      2.47950655298145
  Cl  -0.08298356408629      1.08317634377577     -2.42378038592749
  Cl  -1.43949055723219     -2.60117445770820     -0.07137987624395
  Cl  2.55020789135620     -0.44812780004062      0.61701152341890
  Cl  -1.75843774772310      1.91324925964236     -0.59893857761462
