23
Coordinates from ORCA-job orca E -921.545637565824
  La  -0.26265192273659      0.25088599609660      1.03956580896668
  N   1.79451413781174     -1.07160845739415     -0.64843643872405
  O   2.62371028528360     -1.60003685391292     -1.32201328905274
  O   1.42294654612113      0.13906951782524     -0.84482061889554
  O   1.21286275520324     -1.67060610083593      0.31974392660444
  O   0.38151109766528      1.24516709276035      2.84776490623353
  H   0.65853881745884      1.67242563175530      3.65385200653446
  C   0.02882469161834      2.84880574898980     -0.33506525042038
  O   0.11464753534004      3.81732034222129     -0.88868944585025
  C   -7.21924041959698     -0.53119828758672     -0.17319795371160
  C   -6.55843048012235      0.58874343592296     -0.66055804224709
  C   -5.20375889868402      0.75012584897837     -0.42063536509557
  C   -4.51227736485473     -0.21120456564659      0.30837613338305
  C   -5.17406217658068     -1.33253866939603      0.79672891560943
  C   -6.52862579813554     -1.49131860799047      0.55449780418840
  C   -3.05764395181799     -0.04222287886257      0.56572069569462
  O   -2.45095166936707      0.97765418839655      0.10934166196439
  O   -2.43247211622448     -0.92089741069669      1.23679478531052
  H   -8.27716492111677     -0.65642018305905     -0.36179274114027
  H   -7.10012100568989      1.33375719615999     -1.22702164324739
  H   -4.66838378087367      1.61278682223428     -0.79069937007204
  H   -4.61558584527849     -2.06649141924423      1.35988637118995
  H   -7.04698551542246     -2.36219838671543      0.93155714277742
