35
Coordinates from ORCA-job orca E -1239.848133252318
  Ce  -0.61069347817533     -0.53552972677232     -0.24702595402499
  C   -1.84195854525090      6.15862667288659     -0.64272057320991
  C   -1.14387301227550      5.66355613464471      0.45632487788554
  C   -0.86891435580857      4.31582314323793      0.53921395747419
  C   -1.29926674693643      3.46520487842509     -0.49073646399366
  C   -2.00352954921489      3.96652073063205     -1.59613905170577
  C   -2.27125914256536      5.31688476104581     -1.66561201411850
  C   -1.02395607263718      2.06646185019236     -0.40869542040337
  O   -1.40175681659620      1.21136423293705     -1.32065471638686
  O   -0.38162917997814      1.51570356298887      0.57800190789287
  H   -2.05599568104888      7.21709843846908     -0.70187210012947
  H   -0.82216293562211      6.33371675196639      1.23991304501566
  H   -0.33214197006251      3.91150290953341      1.38553408633939
  H   -2.33054726408263      3.29641274485362     -2.37838334122057
  H   -2.81295620844673      5.72099227995855     -2.50814046138218
  N   1.23751802353036     -1.46763655579871     -1.77875137337934
  C   2.44207037526653     -1.87471186918720     -0.98874763406100
  C   2.73380514683179     -0.83903492509136      0.07544091882922
  N   1.58181248184859     -0.75080442584880      1.01916105253681
  H   0.95352166412483     -2.25165747266392     -2.36402427390730
  H   1.51980214071325     -0.75055088988055     -2.44701471472792
  H   3.30637062823462     -2.00311628095398     -1.63833741292338
  H   2.23118798404570     -2.84244521273241     -0.53225703276112
  H   2.87614832595228      0.14519312585239     -0.37457081634977
  H   3.65462535408361     -1.08922645201498      0.60030663273373
  H   1.70440526574846      0.05730163132460      1.62679478214006
  H   1.60113404628521     -1.55688551365729      1.64165394688967
  C   -3.76483219666402     -1.67333307959430      1.94012689858076
  C   -2.75349333685149     -2.61824784815336      1.34510832208285
  O   -1.69903242625029     -1.86563825738944      0.65045030535476
  H   -4.52817515217310     -2.25571477455158      2.45464560374283
  H   -4.26278592780170     -1.08550103069980      1.16979043873631
  H   -3.30654962177687     -1.00903685628869      2.67168091697827
  H   -3.18529267198086     -3.28030696418901      0.59817641301509
  H   -2.24019914446539     -3.21278571348099      2.09705924845712
