5
Coordinates from ORCA-job orca E -4392.196136069108
  Gd  1.43707912657497     -1.14975027775871      0.53793267946978
  N   2.08518207432892      1.73035160703657      1.64446114173746
  S   0.47920656508376     -3.41213967067979     -0.48982424707295
  K   -2.44145843347683     -2.12169079483518     -1.02707946964900
  Br  -0.86551933251083      0.30618913623713      0.40656989551471
