50
Coordinates from ORCA-job orca E -3829.869328098379
  Tm  0.00171128040035      0.24792132337741     -0.26818081282439
  C   -3.11797296912758     -0.93685320323709      0.45872059646048
  C   -2.06706159856490     -1.60672167872886      1.35577583293802
  O   -2.40640873275325     -2.53329509323915      2.07242246723542
  O   -0.88813811845212     -1.10915769204406      1.24487524598362
  N   -2.55923100617352      0.25446935045621     -0.18778097248749
  H   -4.00680050311858     -0.73272879890219      1.05683794380123
  H   -3.40485375991341     -1.66419672318177     -0.30170560102599
  H   -2.69946038982147      1.08003036971928      0.38325092548244
  H   -2.98529087052654      0.43855687207860     -1.08615709803527
  C   1.74437719927183     -0.35748525376446     -3.24704737994707
  N   1.32672811513501     -0.21549066203032     -2.16515015876267
  N   0.02550446512195      3.09503961455655     -0.30064663114773
  O   -0.88321254044032      2.38701553412095      0.26395428375649
  O   0.93222544704912      2.44312450458684     -0.87006548952016
  O   -0.02590216283695      4.29989059006602     -0.29854378418955
  C   -0.99922666245656     -1.87749352953312     -1.80088649618742
  O   -1.34944367998152     -2.64376151550770     -2.54375808219280
  F   -0.14273044613734      0.72315126450892      4.38744566575022
  P   -0.92627837767814      1.59175548645711      3.33062340169284
  F   0.01083713434385      2.85436359281326      3.35304630169382
  F   -2.01268893367468      2.16734230576429      4.34987200047556
  S   3.52199979043109      1.07016104112650      3.25579973646037
  C   2.32172431561420      0.89210106317413      2.19544405382051
  N   1.42951245144298      0.74617105664714      1.44257672575489
  C   3.28985289409795     -2.89689255397026     -1.44313345394905
  O   2.93094782354235     -3.11102191826172     -0.07811620421396
  P   1.53549453876398     -2.45288412461646      0.44087252960088
  O   0.44025331000963     -3.55013936081713     -0.07402188332733
  C   0.49638832575464     -4.90396148675999      0.37088033278805
  O   1.81081762664597     -2.88327324048542      1.96139234561447
  C   1.05845204004574     -2.38366182182688      3.07885375487031
  H   4.18262772680852     -3.49070023191242     -1.62682085328898
  H   3.49984119143504     -1.84679177208964     -1.63406219826228
  H   2.49770633649353     -3.22095656835567     -2.12114573444756
  H   -0.07283733679218     -5.50068218279290     -0.33948220879552
  H   0.04592502363286     -4.98971833550507      1.35894515771617
  H   1.52564239935729     -5.26159293338134      0.40675492570441
  H   0.03248436582292     -2.74535354034202      3.04572800528467
  H   1.05506189099327     -1.29799177777138      3.08747454098682
  H   1.57012835571911     -2.75417858530290      3.96397624100979
  C   -0.56827147792484      3.11723498479163     -3.69327604646138
  C   -1.58928646994428      2.28967761642962     -2.94002107504410
  O   -1.05491999013534      1.02986436116285     -2.51198186426802
  H   -1.01074800947747      4.06660552126487     -3.99593056004976
  H   -0.23850345401178      2.59296278277110     -4.59229188941381
  H   0.30060953843837      3.31975025670608     -3.06991540976891
  H   -2.46295017175274      2.09550577658059     -3.56957894975418
  H   -1.92883357229625      2.81198036209509     -2.04489997995941
  H   -0.26940235237976      0.80840895310498     -3.03512219755671
