42
Coordinates from ORCA-job orca E -2078.481715413729
  Tb  -1.16893415360222     -0.07550923995651      0.71290345193978
  N   -0.17645186166959     -0.64121627010116      2.91645598543595
  C   -0.92293253952799     -0.48516537385353      4.01216835992385
  C   -0.47058399052171     -0.81785892992689      5.27616079449860
  C   0.80480734918488     -1.33802375986874      5.39869716940469
  C   1.58482203423114     -1.49975051358168      4.26376969206256
  C   1.06549093724563     -1.13749428657955      3.03186493015776
  C   1.83413732982629     -1.26261115200128      1.76187151402996
  C   3.14742892912244     -1.70573510488579      1.71870965129859
  C   3.79721419385726     -1.78075180377423      0.49775334315981
  C   3.12406410485742     -1.40716694816699     -0.65272778853738
  C   1.81846764033382     -0.97158590070412     -0.53046861769014
  N   1.18410110201682     -0.90320956224604      0.64291669659795
  H   -1.91947942058693     -0.08997077575137      3.86170381055290
  H   -1.11105122400581     -0.67716448296381      6.13354008947100
  H   1.19449764378472     -1.61818677331295      6.36732788973821
  H   2.57975069504969     -1.90659528812362      4.35036522796710
  H   3.66755584652686     -1.98649294057799      2.62064150567186
  H   4.82127084956224     -2.12376589000515      0.44975202406910
  H   3.59573097281052     -1.44581610518694     -1.62300299241803
  H   1.25322202339105     -0.65002412890253     -1.39561212623353
  C   -2.06692193345931      4.18538287108629      1.91992329111464
  C   -1.54397687276948      3.12850423020103      1.00114999858601
  C   -1.09123414689864      3.45655254413054     -0.27693708573124
  C   -0.58442538576544      2.52712573653314     -1.18780071663052
  O   -0.51232866361627      1.26983491361802     -0.96381996278892
  C   -0.08561451541902      2.98587528427860     -2.52417200158703
  O   -1.53887899223019      1.93473662668619      1.46378631762201
  H   -2.05066058827629      5.17263583416368      1.46884594949824
  H   -1.47067141498073      4.18963684688844      2.83266064492701
  H   -3.08800887442584      3.92853236707556      2.20322263715700
  H   -1.12274887013592      4.49228601593052     -0.57464211823155
  H   -0.15689760808652      4.06198558542925     -2.64826605392078
  H   -0.66340045942859      2.49382156655194     -3.30740687092535
  H   0.95302581497915      2.67540567932845     -2.64116638379101
  I   -3.65732135985137     -1.48580825745133      1.42691048399029
  C   -1.54732582124599     -1.25411032520040     -2.65276078557410
  O   -1.56822092301654     -1.44919992433126     -1.22569665372629
  H   -2.53064639408055     -0.94907776789189     -3.00442924327321
  H   -1.24034943456395     -2.17323953751444     -3.14646091775608
  H   -0.83320101155038     -0.46182840664623     -2.85199793593054
  H   -2.30532100706488     -2.02555665239531     -0.97663320412925
