5
Coordinates from ORCA-job orca E -3382.494589328438
  Gd  -0.23972606600645      0.30303387471332     -0.85031547103053
  B   0.09442829813250     -1.04116588662874      1.35725581534602
  In  1.61761488891722     -2.46965303965720      0.16342521002066
  H   0.39269883371743     -1.66319876556004     -1.42775253167121
  Se  -1.17052595476069      0.22394381713270      1.82944697733505
