24
Coordinates from ORCA-job orca E -2933.704539557194
  Ce  -0.92582832487834     -0.63166811114735     -0.43186317379007
  C   1.80998188609760      2.67117877034919      0.71418500766903
  C   0.89921299089436      1.83113192022848      1.58216947919647
  O   -0.25627303511547      1.40093009279755      0.85069657148972
  H   2.71440071563939      2.93380011469774      1.26399602086584
  H   1.31670530279868      3.59180033431763      0.39797273337155
  H   2.09380377037619      2.11346719629766     -0.17696190378067
  H   0.56657890282483      2.37359969050335      2.46932794315644
  H   1.39566592425758      0.92047354231112      1.90318673269832
  H   -0.90362951428778      2.10099059621374      0.71823988500649
  I   -1.69772884183186     -1.58086627406999      2.29467509014629
  O   1.29804496902149     -0.74395676120437      0.13808621842315
  S   2.69539985870807     -1.11386878552868     -0.31575764630398
  O   3.64542575958297     -0.83948370155997      0.73248602131911
  O   2.52606777864906     -2.86431238451902     -0.16281062853607
  N   0.60021861691643     -0.07138020666786     -2.85594271334396
  O   0.29299934855872     -1.25565976644426     -2.50314737243268
  O   0.13469313363402      0.84567217213312     -2.11065082305143
  O   1.27663863931173      0.15882042988265     -3.81923841108228
  Cl  -2.76144830805353      1.20972724427600     -0.67517057326795
  F   1.59922115097468     -5.06012385181095     -0.08576666260184
  P   1.55085130459442     -3.77614653958756     -1.02353457923917
  F   0.11763788463077     -3.23481131690909     -0.48180916450403
  F   -2.19993991330409     -1.90151440455911     -1.31936805140823
