6
Coordinates from ORCA-job orca E -807.091183733364
  Es  -0.74252867027173      1.27003121811276      0.78586873542077
  Li  1.45710713215479     -0.99315076916065      2.17507725781499
  Li  -0.88602253374822      0.14721926274378     -2.18314083996490
  Li  0.11827278974630     -1.79155326135717     -0.02634090206778
  H   0.90021429682029     -0.28293373773235      0.62209227225861
  H   -0.84703301470143      1.65038728739364     -1.37354652346167
