30
Coordinates from ORCA-job orca E -2153.895681350994
  Tb  -0.96899314566670     -1.47257412834138     -0.12025133856550
  O   -0.52020800925095     -1.05627487403780     -2.36672699730673
  S   0.48945035112646     -2.22277416928300     -2.55463866529264
  O   1.84899389966366     -1.61379699036725     -2.36989699106380
  O   0.20062592801820     -3.00702697594572     -1.21514537900654
  C   -4.00801480727574     -1.16878722804480     -0.65174941544426
  N   -3.35155737454703     -2.01398479464996     -0.19039197966625
  O   1.27743814008819     -0.27639737725970     -0.18422061578186
  H   1.76449254354201     -0.66396604957085      0.54721679947384
  H   1.63491733484661     -0.71181414024507     -1.02055648294854
  C   0.28937342113978      4.18538232063272     -3.57800151576940
  C   -1.07888603511972      4.15570735981843     -3.81550167540629
  C   -1.87671850706758      3.24701499523921     -3.13926170808314
  C   -1.30315790383379      2.38285317645027     -2.21300259843116
  C   0.06632707296148      2.40811212215082     -1.97373759433303
  C   0.86038737039267      3.31000013270337     -2.66417112214178
  C   -2.12461306570208      1.39490241905560     -1.46921770936975
  O   -1.69144167022566      0.81338416260431     -0.47992104626727
  O   -3.33452915338500      1.21318309471464     -1.93591706258356
  H   0.91386526767016      4.88824054772839     -4.11496541492908
  H   -1.52092945929631      4.83375409902974     -4.53364445239737
  H   -2.94040878848499      3.19793419100642     -3.32376716276078
  H   0.49468229033743      1.70684282152579     -1.26989124361811
  H   1.92871112021526      3.32033964827042     -2.49537790022833
  H   -3.76563774669820      0.43892849164646     -1.45764504532058
  C   0.01485002352323     -1.76969643772606      3.18055238769302
  O   -0.47454049640461     -1.68152414938174      1.89305892070864
  H   0.55030819539080     -2.71396758148960      3.35151519050396
  H   -0.78947287151225     -1.71681030871160      3.92717252497719
  H   0.71718607555513     -0.95488437752260      3.41268529336004
