4
Coordinates from ORCA-job orca E -1129.002510388532
  Nd  -0.38621932438722     -0.11889325804484     -0.02858224033277
  F   -0.90726043897387     -1.14897635496449     -1.73699753754573
  Cl  -1.16472311579478      2.36386209590804      0.11881161118248
  Li  3.05469287915588     -0.27410248289870      0.21016816669603
