4
Coordinates from ORCA-job orca E -904.842830988898
  U   0.62260738591217      0.35179563802784     -0.31368722973765
  Sr  -1.40005982622724     -2.09341021042970     -2.26474052490442
  I   -1.01808435581804      2.71458578641828      0.53582165887025
  F   2.39202679613312     -0.15108121401642      0.60600609577182
