89
 energy: -111.179461926683 gnorm: 0.000373224516 xtb: 6.7.0 (a73499f)
Eu           0.00076357418418       -0.95270533705771       -0.00138593296168
N            2.58090173381254       -2.00010226716340        0.67113902982110
C            3.15489787902592       -1.00998928720199        1.59023668946851
H            4.12562171243104       -1.35104383741823        1.97573025784108
H            2.48815107973898       -0.83347585712868        2.42742895401853
H            3.31850067507356       -0.06358706733302        1.07468729188658
C            3.46700910974907       -2.08276628501191       -0.50042265712395
H            3.33182588626259       -3.05999546800058       -0.97313117255392
H            4.51834692715316       -2.02731141369135       -0.18095432920441
C            2.59577752130696       -3.30684801707997        1.33882625747404
H            2.28248025330810       -4.07359742908412        0.62524925854290
H            3.61863907409907       -3.55622672684167        1.66894986245391
C            3.23292239565094       -0.96969758215658       -1.51466819996009
H            3.37507929779435       -0.00280484520706       -1.02367561420582
H            4.00669464839120       -1.05404484109075       -2.29363652515632
N            1.89520119562779       -0.99445707676219       -2.13099524738292
C            1.83587716733171       -2.10147409961570       -3.09519585620240
H            2.39920523303523       -2.95145059514538       -2.71483925276857
H            2.31044840315988       -1.80893618247867       -4.04485189481269
C            1.72411799920258        0.26193285312981       -2.88738737239670
H            1.00460882603066        0.09402096650364       -3.68951120408974
H            2.67780078232572        0.53848978151886       -3.36072082393268
C            0.40686200608638       -2.54466897275539       -3.38598321559127
H           -0.16713930232483       -1.69056683701361       -3.75239684252938
H            0.43481626849205       -3.30285233624573       -4.18836937731418
N           -0.27912114192100       -3.07297789380861       -2.20421782978154
C            0.35411052271617       -4.32179725081987       -1.78535077547575
H           -0.28546591422564       -4.83457767882833       -1.07213661958445
H            1.30902148453284       -4.12112487684215       -1.30884449436252
H            0.51701360227255       -4.99447229276159       -2.64173990777493
C           -1.67335340182396       -3.36452153158790       -2.55538190734280
H           -2.02253858378585       -2.63852748518613       -3.28936551230721
H           -1.75858465063961       -4.35779340847667       -3.02307740368041
C            1.26678083518756        1.43612537163527       -2.03570515824390
H            1.95185928441918        1.55446423178886       -1.19379077368740
H            1.34485030761095        2.34467004057718       -2.65387216318420
N           -0.10758472410401        1.30663022258978       -1.51958393449705
C           -1.04501952274613        1.42257581469032       -2.64515841006737
H           -2.06264769278965        1.51723930187348       -2.27357708915496
H           -0.98963622341786        0.55352969262119       -3.29775596087028
H           -0.82439170231256        2.31682896759305       -3.24273719388236
C           -0.37461652097679        2.48314856331951       -0.66667661524644
H           -1.45176527271982        2.53868516841924       -0.49695764651694
H           -0.08757575264306        3.39960581056891       -1.20339962006358
C            0.36908118869376        2.48542430227397        0.65957581315520
H            1.44606855583707        2.54360011903964        0.48975168721102
H            0.07953541351350        3.40211348791733        1.19455448730749
N            0.10531866524210        1.30975123951580        1.51468096216899
C            1.04238876914090        1.43043456868266        2.64008161930208
H            0.81930427376467        2.32519910660347        3.23599319515722
H            2.05976221651136        1.52722075962712        2.26833991915604
H            0.98940382867381        0.56245243009975        3.29431220377291
C           -1.26941871137926        1.43653364595673        2.03049353185662
H           -1.95480934352279        1.55137658298260        1.18833325611880
H           -1.34998787507007        2.34604559715720        2.64691820642387
C            1.68391542307639       -3.35511310287197        2.55931610581325
H            2.03115407005929       -2.62676526201793        3.29189586321114
H            1.77180224254769       -4.34724830449399        3.02891482097193
N            0.28891299258197       -3.06794257254558        2.20755498979342
C           -0.34091993666234       -4.31924646177408        1.79095354405145
H           -1.29632976889226       -4.12203616064911        1.31400579824576
H           -0.50205471670784       -4.99076590903961        2.64857893951873
H            0.30008649116543       -4.83162732520671        1.07873529605904
C           -0.39857078302030       -2.53935215602143        3.38833337639538
H            0.17307276419229       -1.68301582128885        3.75322919183634
H           -0.42447316659689       -3.29615455529616        4.19209151560601
C           -1.82879549324808       -2.10060722862399        3.09670329011692
H           -2.38978508718078       -2.95283233679476        2.71791994757786
H           -2.30418494947286       -1.80760750650072        4.04580935740567
N           -1.89111170500585       -0.99555949379988        2.13042338586722
C           -3.22887703620011       -0.97558574397251        1.51401799130469
H           -3.37368094328750       -0.01001751245683        1.02119132642664
H           -4.00242003265616       -1.06059323049307        2.29314335795731
C           -1.72349668973167        0.26272239243331        2.88443574383971
H           -1.00353421278292        0.09831657624954        3.68688210873417
H           -2.67793637308417        0.53757476689019        3.35723514643234
C           -3.45995582223768       -2.09123638550896        0.50192934081493
H           -3.32211425018910       -3.06720393648347        0.97647531432663
H           -4.51144742273217       -2.03922838075111        0.18236393160039
N           -2.57407844574549       -2.00830862859598       -0.66975063005576
C           -3.15069621034437       -1.02136503271363       -1.59056111257815
H           -4.12047842449935       -1.36579154413883       -1.97548186304555
H           -2.48441919322725       -0.84461329559878       -2.42806162697636
H           -3.31685613654033       -0.07446823030786       -1.07673859237346
C           -2.58535843081161       -3.31633334882170       -1.33499578531037
H           -2.26999865577199       -4.08089122198207       -0.61997730065833
H           -3.60751931399095       -3.56917664710337       -1.66466831358369
I            4.18034894384273        2.26073836906259        0.21822092931528
I           -4.18403921779185        2.24715523668267       -0.22469860816479
