5
Coordinates from ORCA-job orca E -1667.600049641513
  U   0.15648492613344     -0.96779742384119      0.22044176669714
  I   2.25766950301765      0.93334263978216      0.07104889265944
  I   1.14367389885344     -3.53808794793182      0.96073479016040
  I   -1.13188262738759     -1.03167054138242     -2.30626173837468
  I   -1.73145570061693     -0.04282672662674      2.12609628885770
