19
Coordinates from ORCA-job orca E -1405.157628730543
  Tb  0.18179141985201      0.94342394199334      0.73972737448654
  C   4.39377902452142     -0.10418187095714     -1.05611674294029
  C   3.10053968770216      0.35218190708291     -0.85823331046544
  N   2.43250010131918      0.05434975808224      0.26210800794713
  C   3.06459872771779     -0.68760541745129      1.17936440949176
  C   4.35826788269125     -1.13393891912295      0.96156682040968
  N   5.02101729369623     -0.84642048967519     -0.15180548453468
  H   4.93124357862389      0.13855089756947     -1.96295587174376
  H   2.59952857166407      0.96793054622322     -1.59405594804030
  H   2.53212839374865     -0.91275386507409      2.09438581386260
  H   4.86664303706461     -1.73328807589679      1.70495664108491
  O   0.11253416821431      0.71502982431297      2.71923335436992
  H   0.04150305817182      0.86841852434345      3.66009870001251
  O   -1.72690431267082     -0.22883428393870     -0.14920646450443
  H   -2.21488912157850      0.04742159584379     -0.93372188637987
  H   -2.27197749323340     -0.88703537609634      0.29671362824826
  N   0.12432390654822      2.76471348727167     -0.35258425617447
  N   0.07564452712697      3.91989938159756     -0.73622256906007
  N   0.03222754881994      4.97763843389180     -1.10375221607000
