16
Coordinates from ORCA-job orca E -1485.634115147406
  Er  -0.23618218234072      0.73869542441172      0.95754100379713
  C   2.82404204002885      0.84135349546082     -0.59912569942490
  O   1.65462840214734      0.79023048678216      0.11790251622398
  H   2.80319224069522      0.18303063043805     -1.48239908418923
  H   3.69288655666554      0.53106694988811      0.00232574920824
  H   3.04476118378871      1.85565122352011     -0.96844709895950
  N   -0.07689152804026      0.01103748570925      3.09361138283593
  N   -0.03060241097073     -0.34315119376170      4.22281502971741
  N   0.01553617096551     -0.68672772239701      5.31435564765862
  C   -2.18090656314533     -1.49750256523098     -0.78366066061864
  O   -1.42197704755072     -0.59546605044577     -0.07976033299026
  H   -3.08632107913638     -1.03756477731937     -1.21092952364118
  H   -2.52126961649776     -2.33473925229251     -0.15470332184787
  H   -1.62720714766891     -1.94179258640897     -1.62586885327106
  O   -1.08877779529238      2.62408875853955      0.92722895863109
  H   -1.76491122364800      3.28148969310651      0.81511428687016
