4
Coordinates from ORCA-job orca E -3655.873166602704
  Pa  0.64686239300442     -1.33713611935636      0.11088986001275
  Sn  -1.63461203497335     -0.86101002764879     -1.47568252658128
  K   -0.36220676908064      2.29376050857746     -0.85324059989276
  Se  1.94644641104956      0.72627563842768      0.78143326646129
