35
Coordinates from ORCA-job orca E -5118.067785691502
  Eu  -0.00543378092603      0.66199229165450      1.01240918988177
  Br  0.51860722597769     -0.78978836154459      3.20952082270346
  Cl  -0.39033812856762      3.14841978840724      1.08710148330478
  C   4.30146904758439     -0.00960967252220     -2.51482076609531
  O   3.07534182550904      0.21182981808035     -1.78007463877817
  P   2.93364946777732     -0.28880398402699     -0.26808781786347
  O   1.37671031740756     -0.88497904282235     -0.31454615256009
  C   1.18866881589987     -2.32064442730737     -0.40544265134344
  O   2.28726031823896      1.08797226493031      0.41661489754137
  C   3.16852831044714      2.21501585998590      0.67482911983914
  H   4.05973101059356     -0.57827708122065     -3.40711454875629
  H   5.02489744510556     -0.55690961219459     -1.91144476920667
  H   4.70836205518467      0.95820566515468     -2.79112716774081
  H   0.12041818279680     -2.48739893479216     -0.51127816883625
  H   1.55185383452923     -2.79663754558662      0.50196505233935
  H   1.70394406601376     -2.70476245122806     -1.28295406877779
  H   2.55810520796245      2.98439134230957      1.13459542552685
  H   3.56965601073340      2.57549947777381     -0.26905927102296
  H   3.96452283392553      1.90500716172640      1.34780058435845
  C   -4.27218159290428     -2.17502089755476     -1.18901757712892
  O   -3.05965491868038     -1.58653169505436     -0.66242882276277
  P   -2.96045492256267     -0.00849750120686     -0.42414236106071
  O   -1.39825027578203      0.24863300333403     -0.95582205214210
  C   -1.18260749664754      0.52694534629976     -2.35993402394935
  O   -2.33194456056096      0.01703192389038      1.11761907022199
  C   -3.22072202348742     -0.24461070261099      2.23761808700285
  H   -4.01378905045180     -2.72256097761375     -2.08978303798734
  H   -5.00965368502406     -1.40735768495373     -1.42092284980025
  H   -4.66927608585358     -2.85586487784381     -0.44254781607176
  H   -0.11243612500930      0.65334626899447     -2.49510012963579
  H   -1.70396117169630      1.43887559893990     -2.64066921097906
  H   -1.52692595693873     -0.31532440784198     -2.95608128994641
  H   -2.60863799221986     -0.21366142554529      3.13243178144019
  H   -3.65324250512429     -1.23587455505721      2.12624254462227
  H   -3.99231570325004      0.52035002704728      2.27455113366283
