5
Coordinates from ORCA-job orca E -735.128578887903
  Cf  0.11288779397266     -1.17804522881779      0.04862911692850
  H   1.51222007712129      0.15145865685561      0.09876859978187
  H   0.96947265133633     -2.59821190643267      1.13747856837557
  H   -0.82656668676697     -0.57809559662781     -1.59501716113357
  H   -1.07352383566330     -0.44414592497734      1.38220087604763
