34
Coordinates from ORCA-job orca E -2532.508160735912
  Dy  -0.37680643109000     -0.12058033762139      0.23913889348619
  N   1.74836611511691      1.08160433849313     -1.05017584598764
  O   2.64345970115606      1.56794973132965     -1.65178503123546
  O   0.84604994652421      0.35155891555952     -1.62661124852825
  O   1.57873047095455      1.22467963178432      0.20809621919797
  N   0.41278116565102     -0.36884648274268      2.55108753123206
  H   1.42763826698946     -0.42214006026525      2.53077242039774
  H   0.07420514651621     -1.25250808882580      2.93899505122724
  H   0.17905008050537      0.36355866935358      3.21386488468067
  C   1.94452524202337     -4.55848323264897      0.19587796827476
  C   1.49704658535053     -3.17847980942674      0.19600103588248
  N   1.13003620107478     -2.09341370156878      0.20065384401818
  H   1.66772677076913     -5.02467494623750     -0.74757100896972
  H   1.46022773412426     -5.08428404137629      1.01682193310478
  H   3.02511882287570     -4.59433040269752      0.31621144735526
  C   -2.70937812033219      4.79301850548146      1.08055051012256
  O   -1.98665982406466      3.57294552131226      0.79762230355844
  P   -2.76291834691541      2.22678930050417      0.43497506683996
  O   -1.71177348394387      1.64361645415478     -0.72207019413307
  C   -1.66417847043970      2.34964900123298     -1.99085634544067
  O   -2.06634262791343      1.14789587295995      1.49528323211048
  C   -2.82283948460042      0.74861855999731      2.66539157728223
  H   -2.34868091674315      5.55818507865424      0.40064484596169
  H   -2.50028681054288      5.08061042670697      2.10620565807590
  H   -3.78133736561995      4.65244426949362      0.94501524257549
  H   -1.05486027415657      1.75378947858529     -2.66101456426463
  H   -1.21115702155527      3.32589613771881     -1.83966984311353
  H   -2.67281513445877      2.44819778121835     -2.38791562052371
  H   -2.59409472549666     -0.29392511421721      2.86919082176409
  H   -3.88931019401392      0.84317235157874      2.46951389274144
  H   -2.53979455663755      1.37852133897076      3.50532940318247
  S   -1.46751065607227     -3.45428239686855      2.61189142692885
  C   -1.75014152338200     -2.52078622637848      1.33659044408675
  N   -1.90767628157048     -1.78806652405272      0.41784404814055
