4
Coordinates from ORCA-job orca E -1983.915160743280
  Fm  -0.18438548565891      0.36999355125935     -0.36159108003602
  Si  -0.66091094820333     -1.77386433173329     -1.81503565850772
  S   -0.77760520987322      2.44446450013681      0.59496023362454
  Cl  2.21939164373547     -0.21870371966286      0.14506650491920
