7
Coordinates from ORCA-job orca E -16679.725239282885
  Lu  0.00006691596589      0.00013507688786      0.00008625775606
  Br  -0.63412538849331      0.30380728208828      2.62111563024700
  Br  -0.30285375099553      0.63277192642959     -2.62181372710302
  Br  0.63343918812286     -2.62201259189535     -0.30212482783088
  Br  0.30340915316863      2.62181053017060     -0.63387832337055
  Br  -2.62174125202440     -0.30334489376819      0.63241993799384
  Br  2.62181513425585     -0.63317732991278      0.30418505230756
