6
Coordinates from ORCA-job orca E -424.170396855309
  Th  -0.21631614559042      0.27573200614301      0.48540260469153
  Li  1.58590253335552     -0.66947921149064      2.82871382079545
  Li  -1.00078412690874      0.03107337637736     -2.34950642329096
  H   -1.07444676705836     -1.04392620144935     -0.99688156037925
  H   1.80507432600672      0.07655259968873      1.26900176238529
  H   -1.09941981980472      1.33004743073088     -1.23672020420206
