5
Coordinates from ORCA-job orca E -586.950413657327
  Th  -0.83755826335930     -0.70751315778443      0.02284810884194
  Be  2.11201976234231     -0.31361961653802      0.35162950748053
  Be  1.60251249333901     -2.28384209466691      0.73274862587597
  O   -0.86070450406125     -1.09368982696420     -1.83930465677534
  O   -1.32177948826076     -0.24837530404642      1.80413841457691
