4
Coordinates from ORCA-job orca E -3516.309670900058
  U   0.37694962838459     -0.16085624721737     -0.41897652928428
  Se  -1.30464176035515     -1.36235645171602     -1.77907831971120
  I   -0.92628640845563      2.31032006944247      0.18766618901619
  P   2.45046854042619      0.03478262949093      0.57378865997929
