49
Coordinates from ORCA-job orca E -2540.181846626504
  Tb  -0.40759041759068     -0.44581029021456      0.54223974437948
  C   -3.79730221799529      2.54839546970249     -0.61317946182580
  P   -2.19123106984957      2.74051479941142      0.12731465256130
  O   -1.53286472791081      1.32162825834462      0.32147366405796
  C   -2.35002964259265      3.53648224589927      1.71140942781736
  C   -1.15168735548297      3.72025552084576     -0.93485225388295
  H   -4.24001632711408      3.53377484258314     -0.76874221018284
  H   -4.45306631924825      1.97730587748006      0.04324383584183
  H   -3.71266250241200      2.05029593140618     -1.57858562821590
  H   -1.36886258797250      3.68412246149158      2.16217637120616
  H   -2.97951741819311      2.94281098299791      2.37396003992516
  H   -2.81701055930027      4.51384608800516      1.57806561825142
  H   -1.59102793962438      4.71145455879088     -1.05807815015516
  H   -1.07080858358176      3.25295567236084     -1.91588966325748
  H   -0.16166175427751      3.83137611552298     -0.49290197711601
  C   0.68569596619058     -3.11833368794818      2.56694818278569
  O   0.95709940834908     -2.13886849802440      1.50572140810921
  H   0.93058035477845     -4.11332565076525      2.20770786969874
  H   -0.37555638317231     -3.05849514429720      2.79095224006473
  H   1.27124926152427     -2.87100634795108      3.44748984264945
  H   1.88925955421443     -2.19952533344761      1.25493966351746
  C   4.74452622413569     -0.34654668452844      0.84511481481711
  O   3.48182590139859     -0.59586399461342      0.13624437670572
  P   2.34192170678231      0.51297112223644      0.06297900659254
  O   2.87369669914616      1.73542496382025     -0.73947442024700
  C   3.92362963451656      1.81388027436000     -1.76348885969794
  O   1.31346011281635     -0.35812846603187     -0.98132226595720
  C   1.72942033710898     -0.90625034882907     -2.28519493164461
  H   5.30744956156700      0.42730186014987      0.33199134209910
  H   5.28900162585246     -1.28262898358520      0.81579655005861
  H   4.54282013483077     -0.05425328707551      1.87320483200754
  H   3.46304722054995      2.20981293879744     -2.66197504001806
  H   4.35329824159952      0.83276423653078     -1.94584964892857
  H   4.67343604784152      2.50293678839311     -1.39120518406665
  H   2.62123212199048     -1.50757517801531     -2.14122093328355
  H   1.91262406106367     -0.07791811595913     -2.96224157481217
  H   0.91232459984973     -1.51632388999045     -2.65670198359852
  C   -0.14943471141424      0.37821130971980      3.14998470589537
  O   0.00219426607652      0.76031397416508      4.18504601324655
  C   -2.63153034625056     -4.36029016791717     -0.53728398160178
  C   -1.68137265804348     -3.37931037462188     -0.29885359125634
  N   -2.03599825185160     -2.17954801334651      0.19203235415980
  C   -3.34011966498682     -1.97862984220025      0.44348723958761
  C   -4.27323808879928     -2.97720050709365      0.20698879764628
  N   -3.91846340133384     -4.15795194053419     -0.28273749142644
  H   -2.34565081279106     -5.32458444856340     -0.93767082556930
  H   -0.63148714526585     -3.55847130594507     -0.49786711460907
  H   -3.63963469795518     -1.01480397903138      0.83638440821601
  H   -5.32309893398663     -2.81685143075354      0.41638317172178
