47
Coordinates from ORCA-job orca E -1219.851551681915
  La  -0.69900651394280     -0.79220975435765     -0.88393087159201
  C   6.11060537508125     -2.97606062515290     -0.71923649479166
  C   5.20827931910217     -3.57723719668073     -1.58659096295369
  C   3.88689032579426     -3.16060323186536     -1.60826840633526
  C   3.46905570980714     -2.14013101140007     -0.76181934977459
  C   4.37277137344364     -1.53908123791312      0.10677991063218
  C   5.69344310421882     -1.95776382218672      0.12775181679017
  C   2.04579528813320     -1.69103953168184     -0.78723798458312
  O   1.22928446983954     -2.25876045975171     -1.56908608803257
  O   1.67859845058927     -0.74534278981267     -0.02366675972759
  H   7.14206747175096     -3.30241350479732     -0.70270924055309
  H   5.53596750607141     -4.37051974572276     -2.24463097217758
  H   3.16579631263345     -3.61393584639591     -2.27346863591512
  H   4.02475486294841     -0.74978504629414      0.75799641507357
  H   6.39828824800453     -1.49236547168045      0.80340290562277
  C   -1.72797392139048      2.07192369151424      0.74248327180434
  C   -1.27676340389131      3.35497598779734      1.42340563160518
  C   0.20032471116532      3.42485282006176      1.03801336478071
  C   0.61262002413570      1.96812664012640      1.13234440060617
  O   -0.54734512913512      1.23069741018407      0.68649174380086
  H   -2.05654990533487      2.24947677454774     -0.28402586418864
  H   -2.50084885305979      1.52660202260663      1.27858086446094
  H   -1.38065574335025      3.26898675037914      2.50560263700889
  H   -1.85203476014708      4.21625400203826      1.09122909242168
  H   0.78761193937766      4.06341801079811      1.69451599163110
  H   0.31173804283305      3.78271205219944      0.01358988228849
  H   0.82973027706146      1.67566247984240      2.16171481055737
  H   1.45222649784177      1.68639375947831      0.50345471446491
  C   -6.55456743072456     -3.93588859302539      1.75274852996000
  C   -5.89334161872452     -4.49933805750373      0.66954357408826
  C   -4.74604105015320     -3.90205891604608      0.17236565088247
  C   -4.26105028141157     -2.73912370125809      0.75981969916722
  C   -4.92318370017984     -2.17605777233838      1.84458691026321
  C   -6.06991807475602     -2.77498085778468      2.34065464831375
  C   -3.02735800041972     -2.09217753817921      0.22358588032421
  O   -2.60207614814051     -1.02449634605744      0.76060791237475
  O   -2.42640161858511     -2.61754708785015     -0.75909316166100
  H   -7.45020318524028     -4.40332886334464      2.14006971426861
  H   -6.27291448606963     -5.40371803205025      0.21373253584031
  H   -4.21352760062681     -4.32149178064345     -0.66933521498817
  H   -4.52650684186558     -1.27313121384497      2.28657605244284
  H   -6.58689497780949     -2.33915376141683      3.18485047258694
  C   -1.46444626032853      1.52354754816431     -3.49216291389186
  O   -1.19087057747129      0.60066043602744     -2.48564352986640
  H   -0.60974458099703      1.64675719313587     -4.16564958060256
  H   -1.69948125020702      2.51141841205747     -3.07688028772036
  H   -2.32104339587026      1.21097580607807     -4.09826271470662
