33
Coordinates from ORCA-job orca E -2654.499935710084
  Lu  -0.55797501380370     -0.26383081935832     -0.16592447335648
  C   0.36906080250345     -3.41248380361866     -0.00532504500216
  C   -0.57366722002142     -3.21917939351638     -1.20666693439132
  O   -0.83572464169627     -4.18940204293809     -1.89433250929985
  O   -1.02181866869994     -2.02078449859207     -1.34683563467724
  N   0.94285782580022     -2.13244110954391      0.43033762323580
  H   1.11774986807873     -4.16161721212072     -0.26462675763025
  H   -0.24076642255533     -3.80721436078187      0.80850200232899
  H   1.68502193840581     -1.82514422227814     -0.19144813270048
  H   1.33214009841839     -2.19363920132255      1.36123539590389
  N   -1.98602406487201      1.96218908547756     -0.99335314411798
  O   -1.32014725940956      1.96195540848271      0.09166458952297
  O   -1.99235363665925      0.86131675321250     -1.62520793304833
  O   -2.56358338727845      2.93983725285514     -1.39185082944290
  S   -2.47817324632001     -1.34076683458867      1.56026484477636
  C   -2.55287765920080     -0.33671796931367      2.90273486400084
  N   -2.58647864120599      0.32303598923509      3.85613095198676
  C   1.69295737918382      1.67143809079563      4.17074042354737
  C   1.71485350064814      2.32574387908656      2.94896629483609
  C   1.10868842705873      1.72359606513244      1.86146530076826
  N   0.50024061183643      0.53718501757198      1.94194425478803
  C   0.47880769036008     -0.08441183957405      3.12050122347993
  C   1.06629598467336      0.44143562976540      4.25837266567313
  H   2.14942542508046      2.11999425879909      5.04342653981693
  H   2.18516820410983      3.29166789965586      2.83425196103563
  H   1.09619908787974      2.19379634793067      0.88809279341665
  H   -0.04983811207725     -1.02871611815951      3.14863347763015
  H   1.00052764577302     -0.09698933131067      5.19225811269572
  C   1.83669568337025      1.38143920728986     -1.76287207820115
  O   1.17656252816059      0.41032735481844     -1.03408347460740
  H   2.81381550732208      1.63135891427071     -1.32011477653400
  H   1.26485287635646      2.32020617423900     -1.82462942024913
  H   2.02850688878029      1.05981542839859     -2.79535217618500
