29
Coordinates from ORCA-job orca E -2596.058435878932
  Pr  0.48006988342689      0.30395200219212     -0.28136884751833
  S   1.21687012198143      2.22877708628913      3.51324898985939
  C   0.95409301160617      1.07786047275041      2.52035931976722
  N   0.75383663816418      0.13409971774867      1.76709578783385
  C   -2.84514111203067      3.59539583985078     -0.07404473198713
  O   -3.42135256660170      2.29005518130892      0.11771406771144
  P   -2.91755150331843      1.06381360027537     -0.79499274580632
  O   -1.90545147671123      0.23439702314488      0.28351086915160
  C   -2.45348437402596     -0.17861415076004      1.57394760516157
  O   -4.15789905614066      0.06771364874907     -0.59157681231340
  C   -5.46379816562205      0.44418490522994     -1.06727808078561
  H   -3.62366893447426      4.32273945091921      0.13093892007241
  H   -2.49501277741303      3.72031076177133     -1.09954483703964
  H   -2.01742315629737      3.73507756429411      0.61865735930837
  H   -1.61958903979668     -0.49030100334063      2.19264156552412
  H   -3.14691527296904     -0.99758241521375      1.41776543941085
  H   -2.96373276143621      0.66586906275462      2.02902589151323
  H   -6.10312963038951     -0.41975801108888     -0.92262384709527
  H   -5.43072067500530      0.69890690552106     -2.12621268319701
  H   -5.84111141298274      1.28559181775103     -0.49095229633358
  N   0.57049240769323      2.46509945062986     -0.21300637437551
  N   0.51256265335684      3.35388397632340     -1.05422126713927
  N   0.45076050452717      4.19301201063480     -1.79516537684807
  O   2.78923144138956     -0.77378442642647     -0.52171519932732
  S   3.58046736790732     -1.93655373270074     -0.86780451998303
  O   0.38012736152686      0.21538087817718     -1.97559923215842
  O   2.87633132186553     -3.16186311436720     -1.00733836628804
  C   -0.25937280258541     -2.51545163540540     -0.18518441098950
  O   -0.61728799564431     -3.57331286701317     -0.15977618612858
