44
Coordinates from ORCA-job orca E -1800.486995579822
  Eu  0.45528552080232     -0.31959865093733      0.43414796718149
  C   3.61455098047835     -1.47364423855950      0.00263180885695
  C   2.46312940188886     -2.44475893686860     -0.27722908365847
  O   2.46949772515417     -3.13727312617295     -1.29066189133567
  O   1.49497060171876     -2.36183232541647      0.56316812168124
  N   3.07186544101646     -0.28950779406376      0.69806665298642
  H   4.04324388041362     -1.17271037408414     -0.95030293921341
  H   4.39251036623249     -1.98503101225538      0.57303137365698
  H   3.61233141756118      0.53833902955573      0.48746515215945
  H   3.09307600873314     -0.41444646020266      1.70394943199103
  C   -2.48604064825610      2.33133558164140      1.19627306139058
  C   -2.82878044785983      1.13118333631763      0.33954931530301
  O   -1.69290402511467      0.65464483439888     -0.39074116627661
  H   -3.36785475673120      2.66914143269978      1.74086484040163
  H   -2.12853501144778      3.16084021091375      0.58382829029875
  H   -1.71264439665081      2.08235390274794      1.92272947043976
  H   -3.62559918034616      1.37188323499263     -0.36764682495987
  H   -3.15512635911002      0.29692624265696      0.95634041962338
  H   -1.16759322398863      1.38970751237063     -0.76417191106407
  C   1.08606259556518     -0.72161162278574     -3.66482416728971
  C   -0.18715651931853     -1.14189871162707     -2.96335604095258
  O   0.08212434564677     -1.60505829416187     -1.63252099727799
  H   0.86684303072832     -0.38585453287237     -4.67886311605562
  H   1.78832737221050     -1.55396794540397     -3.72052739662945
  H   1.55327406312611      0.09858940241669     -3.11968346494239
  H   -0.70290811545142     -1.93332749591786     -3.51007339982353
  H   -0.87287658720012     -0.30538567023977     -2.84878522095275
  H   0.66666677276952     -2.38624345904404     -1.66232997778945
  C   -1.40909767387605      0.46683600643471      7.16061062291910
  C   -0.19687753355368      0.96592206687731      6.70242098513263
  C   0.16886588850708      0.78418457277349      5.37858737232098
  C   -0.68074567191186      0.10481314457847      4.51259320850820
  C   -1.89475378595591     -0.39395295384665      4.97114419177950
  C   -2.25701232613871     -0.21371322120455      6.29650123218047
  C   -0.29185210817564     -0.07687440240580      3.08560125623662
  O   0.83736002817624      0.35164455803896      2.68946574182230
  O   -1.08971431785370     -0.63289974300419      2.27800852404236
  H   -1.69367741323953      0.60803322796984      8.19493477103792
  H   0.46112609031166      1.49558042657712      7.37803067573730
  H   1.10686842079145      1.16344029551469      4.99850983818127
  H   -2.53700203292694     -0.92150141082183      4.27996800267045
  H   -3.19909489978748     -0.60319343237431      6.65786272395457
  O   0.70817300244249      1.47318710541139     -0.77678515961694
  H   1.32369408062013      2.08139968938286     -1.17668229465604
