5
Coordinates from ORCA-job orca E -7514.434066597457
  Pa  -1.06426017055921     -2.46041478080717      0.08231037245570
  Ga  1.83990063123061      1.97723916943739     -2.00363570058489
  P   0.92064816920988     -2.86349593340634      1.71721970825618
  As  0.90263900173840     -0.52229358946206     -0.56335163063153
  Br  -1.93503598036568     -0.75611458051244      1.83060829905186
