4
Coordinates from ORCA-job orca E -2051.793846767372
  Yb  0.69618523961163      0.16271483753536     -0.28486042741595
  I   -1.72957415179378     -0.85209485354713     -1.74846961028192
  I   -1.71774957545039      1.94273892700447     -0.04004952447466
  I   3.34762848763254     -0.43146891099271      0.63677956217253
