34
Coordinates from ORCA-job orca E -2263.549118399387
  Gd  0.21731189783841      0.58264362535745      0.86219712190502
  C   2.12251225441815      1.98692606075963     -1.43410661877813
  O   1.89659458626093      1.32544116547516     -0.23555954340521
  H   2.81993614271321      1.42958361312556     -2.08190334587011
  H   2.57061908630605      2.97890445885958     -1.27198431305917
  H   1.19612881564703      2.13052237138314     -2.00592581460888
  N   1.30932391041217     -0.08823677333414      3.07463757907173
  O   1.83856307648833     -0.27497158002191      4.14283375190098
  O   1.15912705663560     -1.09680041244056      2.29708917927208
  O   -3.36384573011769      1.90026245011157     -0.04895469059699
  S   -2.48013077677815      0.75022094784720     -0.36394883598774
  O   -1.10012823614048      1.35202610043512     -0.83170997457925
  O   -1.99454736339082      0.14338991530113      0.99842617832165
  C   -1.61344573195390      4.31842818325553      0.17188346581768
  C   -0.77529868928138      3.57421264629015      1.08983415353368
  N   -0.12511703239593      2.96130670443886      1.81349729251397
  H   -2.45704251913834      3.65475292405233     -0.06325994842125
  H   -1.04934612883589      4.52490382711672     -0.73502634598276
  H   -1.94322599052884      5.24485823775261      0.63863576813962
  C   5.12660046745625     -2.73630141466820      0.99522010602013
  C   4.62291176577680     -1.52052624348003      0.55518054708559
  C   3.33664467358458     -1.43540519428004      0.04705342747850
  C   2.55952059538113     -2.58581221722780     -0.03145317078831
  C   3.06059080624469     -3.80598583026446      0.41452231681405
  C   4.34342554201158     -3.88016149668103      0.93160767449201
  C   1.17519683080433     -2.47474387061683     -0.57097643011974
  O   0.48369729028460     -1.49044017522406     -0.50512195907494
  O   0.68753016040985     -3.56279451905380     -1.19408843849977
  H   6.12614496680438     -2.79099068855863      1.40655888411208
  H   5.22428827758174     -0.62438864331818      0.62553918743699
  H   2.92202399906248     -0.47650480236606     -0.25557532149373
  H   2.43729649833344     -4.69295863056438      0.41797481215597
  H   4.72255158475684     -4.82309021550331      1.30179893422223
  H   1.38357911596942     -4.22276862222638     -1.26674078141340
