51
Coordinates from ORCA-job orca E -2663.511029716923
  Gd  -0.39362821831106      0.24297656182145      0.61101588986634
  N   1.23765579354251      2.16160533919015      1.31110827532753
  C   2.49125279151052      1.60385065045394      1.82774316493528
  C   2.17949286921879      0.65481956899490      2.97832323253853
  N   1.22042947137987     -0.37935484700263      2.58844168337069
  C   1.75333089179451     -1.72323073729306      2.38209745310334
  C   2.48816625128536     -1.80732980625079      1.05224377750691
  N   1.61930826178559     -1.33166458708912     -0.03041264056257
  H   1.39323297179797      2.70031373345332      0.46544467254651
  H   0.78982332432259      2.75692116822437      1.99964101684203
  H   3.19289319734998      2.37183861227174      2.16822909991652
  H   2.96954614793453      1.06872641566872      1.00567459846971
  H   1.74667301160444      1.23424166877555      3.79702361517086
  H   3.10819993276265      0.21376945839559      3.35494708027249
  H   0.43884142255957     -0.40688920765739      3.23130260281646
  H   0.89867158879637     -2.40065798954879      2.36942805277691
  H   2.42026458542664     -2.03144636409729      3.19694748059099
  H   2.82787430924419     -2.83247745956457      0.88836133983823
  H   3.38474405707558     -1.18528446268509      1.08764981357974
  H   1.22064863444014     -2.08036414345330     -0.59609988946152
  H   2.12138162425357     -0.75175347549429     -0.69468753169060
  N   0.49706994695797     -2.47218897224241     -2.61913606072052
  C   -0.90511266470050     -2.63810794634397     -3.00822809925075
  C   -1.77210672494597     -1.54490123526386     -2.41193695711025
  N   -1.63037914667552     -1.46276472887385     -0.94934466224824
  H   0.81178520530672     -1.54138893849619     -2.88337441897930
  H   1.07729117961443     -3.13523417795455     -3.11679231272644
  H   -1.24851643550888     -3.61125164718759     -2.64532932300464
  H   -1.05525842588825     -2.62814849093826     -4.09362476355434
  H   -2.80858294231463     -1.74162618283120     -2.69802805052334
  H   -1.48600177428746     -0.58305153751644     -2.84274493154979
  H   -1.41151434321570     -2.37389859163609     -0.55818108642022
  H   -2.50445636110716     -1.18679296738103     -0.50616288812128
  C   -3.06374152589261      3.38657405183751      1.18763855299591
  P   -1.91096333393533      2.79453552504053     -0.09769149238832
  C   -1.21305972099011      4.36494825425847     -0.72864274832316
  C   -3.05465384866302      2.33227340210868     -1.44489601894215
  H   -3.71866631655403      4.17178700920559      0.80628045377684
  H   -2.50201443494641      3.76626172517088      2.04078729228820
  H   -3.65495050245664      2.53868257177455      1.52715523986627
  H   -2.00211096867125      5.05738666229089     -1.02659714226233
  H   -0.57050153109988      4.15553473711829     -1.58298270275880
  H   -0.60973255754875      4.84070752973961      0.04617434792217
  H   -3.73042243804813      3.15213284779318     -1.69402215102603
  H   -3.63953899339801      1.47133282891460     -1.12111755206226
  H   -2.47532537694060      2.06177126116606     -2.32807452230170
  O   -2.92704489848636      0.11501200351801      1.06464668472755
  S   -2.38714319164838     -0.34130784508027      2.41657370870866
  O   -1.41504950854921     -1.46692861391724      2.00923145505511
  O   -1.40933584213949      0.78915382134185      2.77474643648692
  I   0.92823455695888      1.34778754727075     -2.19214907530821
