42
Coordinates from ORCA-job orca E -1774.266164743143
  Ce         -0.26916109628687      0.12768458568967     -0.16090623277049
  N           1.14492650337783     -2.12438023681906     -0.48971591573639
  C           0.67300645509849     -3.10089907789630     -1.50670928633015
  C          -0.83835923283718     -3.02456039741537     -1.62979318083413
  N          -1.30661762225919     -1.63571144629651     -1.86620672524277
  C          -1.26057298857975     -1.18821675901176     -3.28365267791360
  C           0.04865598371688     -0.50144734049595     -3.64377500818979
  N           0.32135828262821      0.58816800307158     -2.67582248060173
  H           2.15618927802472     -2.03872252430580     -0.54480387936161
  H           0.95842633362691     -2.49755421011234      0.44125186163035
  H           0.95979479455213     -4.12959764097928     -1.24941872336454
  H           1.15986978183959     -2.86760118890934     -2.45773659794279
  H          -1.29662715501990     -3.37064774646033     -0.69697121688370
  H          -1.17465861543086     -3.70026550785039     -2.43015063084598
  H          -2.27884902243447     -1.58457747007043     -1.56673917254096
  H          -2.08210462292050     -0.47595913441542     -3.42446824691960
  H          -1.43215479956553     -2.03044340078778     -3.96964727671216
  H          -0.02050165076840     -0.12845341925850     -4.67523953784175
  H           0.89079284530171     -1.19906669082128     -3.61404394906090
  H          -0.33779004237114      1.35262287342268     -2.83014109249195
  H           1.24273941446119      0.98786792853245     -2.83560046885832
  N           0.56733295323941      2.19400145787217     -0.17397907727604
  N           0.49035023154993      3.37827346509747     -0.41562380683354
  N           0.43279116734448      4.49481314472254     -0.63480268502442
  C           1.60778619442703      0.65898559112212      2.76423723156963
  C           3.04785814288672      1.03013890688997      3.06190632843306
  C           3.60152793409511      1.32572029163773      1.66517401178728
  C           2.96817752965865      0.21864321012175      0.84156385064871
  O           1.65818587848072     -0.02917973935215      1.45062435475109
  H           0.97129127734542      1.54298588244560      2.65360709851668
  H           1.15545114440980     -0.03533603663136      3.47472618775480
  H           3.58116565577570      0.19069058555986      3.52136872482885
  H           3.11020384334354      1.88869557690714      3.73485413141073
  H           4.69283227575233      1.29671740521400      1.61712277504495
  H           3.25930940681453      2.30427082289525      1.31209996523865
  H           3.54780390727570     -0.71256823315592      0.90058614056776
  H           2.81576401066305      0.49665820842384     -0.21032340282751
  I          -2.85178984329971      1.38467860760834     -0.91156001226459
  N          -1.63754982037566     -0.98478462802854      2.12525131700589
  O          -2.21253387129800     -1.44109473376262      3.06463469448632
  O          -1.22442591153139      0.23125901760511      2.06576650800857
  O          -1.36625493071151     -1.68208800200268      1.05999610298631
