20
Coordinates from ORCA-job orca E -1531.693131826449
  Ce  -0.65640005428053      1.58262139730289      0.64008451152557
  C   1.78158379184743     -0.65553943819108      2.68491700180743
  C   2.62461131587371     -0.65410530315738      1.47559698420752
  O   3.31181054600594     -0.71247932360493      0.60952462612247
  O   0.52719021658120      0.54226839530612     -0.05007654086361
  N   0.97827903424943      0.57150877559614      2.85538222365298
  H   2.49004544062485     -0.85624345981641      3.50244726707539
  H   1.14987309796852     -1.54522391674359      2.57691846530890
  H   1.59156035390820      1.31526765834351      3.19195903834042
  H   0.37594464323150      0.37646577154013      3.65714721837253
  C   -5.10108459194211     -0.51272488152057     -0.29012125466400
  C   -3.83902657440429      0.09729988169325      0.03950432896982
  N   -2.82550124996622      0.58365422097906      0.30533115517215
  H   -5.89665733883991     -0.02789453368636      0.27887915263105
  H   -5.06188791741891     -1.57490443204919     -0.04059826773002
  H   -5.28724998260421     -0.39445829690257     -1.35970198479439
  F   -1.42967876078906      5.45149331849567      0.23738293155364
  P   -0.10323608134302      4.92308166832851     -0.32125071249374
  F   -0.74394229435841      3.52247027909546     -0.97640955494001
  F   0.27136640565630      3.97514221899081      1.01148341074538
