25
Coordinates from ORCA-job orca E -1286.245959187761
  Nd  -0.08443689869415     -0.81561272724939     -0.77968265732307
  C   1.74978022699798      1.23773897476106      1.31111442044155
  O   0.96601126265922      0.33601143263436      0.56210037066301
  H   2.80320529506863      0.95865827410364      1.26454741723467
  H   1.44034667593267      1.23182693227438      2.35719401087370
  H   1.64634177128462      2.25157144491678      0.92197104076855
  F   -0.09791744795767     -0.41637431887388     -2.79525524216799
  C   -1.18833666391584     -3.37179573568489      0.17728166183021
  O   -1.60648168999883     -4.33917548271372      0.54472023567042
  C   -3.26963589707053      0.35307290641590     -1.33578132415468
  C   -4.28867615172802      1.27935489302722     -0.69397366980041
  C   -3.46359591142386      2.01372992826104      0.36249341672104
  C   -2.57567306364216      0.90833362204606      0.88938549112635
  O   -2.26616629207997      0.09979403256800     -0.29057106938418
  H   -2.75268180422505      0.81372535058011     -2.17655789765045
  H   -3.68267738301877     -0.60528302695565     -1.64260420683031
  H   -5.08474155945131      0.70416641038238     -0.22209421475250
  H   -4.73756161554778      1.94684184996583     -1.42473895924150
  H   -4.07380843430642      2.45466016408999      1.14661176485732
  H   -2.86190765594702      2.80079447171036     -0.09219223536767
  H   -3.09708600770043      0.27240315054235      1.60524013871444
  H   -1.63018860371930      1.24204836585681      1.31135083626850
  N   2.01510410340915     -2.42606972565817     -0.98882051881975
  N   3.12732718990254     -2.63163496889566     -1.34394838351501
  N   4.20365655517248     -2.84648621810495     -1.67799042616224
