5
Coordinates from ORCA-job orca E -3018.043829757748
  Pa  1.43978428383189     -1.44873656686645      1.09570647320912
  Ga  0.83930552449696      0.83387214664648     -0.28236356237612
  Cl  0.47022958086683     -3.52774499175039      0.02382452469084
  Na  -0.72237808439385     -1.21915284009346     -1.61614306904831
  Sr  -1.33245130480183      0.71472225206383      1.85103563352448
