7
Coordinates from ORCA-job orca E -2519.008719155211
  Cf  -0.28462738478169      0.09577271910688     -0.29656133632884
  I   -1.68277829449596      1.65429530941101      1.85740427272405
  I   -1.45049234225774      0.73621594156782     -2.78419995158767
  I   1.30821015079451     -2.30096007010081     -1.24898605330118
  I   2.05108233737725      2.03894021556865     -0.30649653643865
  I   -2.20177944842260     -1.52682567556957      1.34621558631494
  I   2.26039498178624     -0.69744843998399      1.43261401861734
