4
Coordinates from ORCA-job orca E -1043.878811446400
  U   -0.51104078469048     -0.19192442938377      0.10914414557684
  F   -0.81674966250375     -1.04284340874180     -1.73509866926216
  Cl  -1.09179476931299      2.30071872113520      0.04250793126753
  Li  3.01607521650723     -0.24406088300962      0.14684659241779
