5
Coordinates from ORCA-job orca E -806.473306516987
  Es  -0.70960395038306     -0.15791774151517      1.30601698506016
  Li  2.51512880764029     -0.41790815246746     -1.03098222060470
  Li  1.43363617857491     -2.70971771538563      0.32817373431643
  Li  -0.11913890694344     -1.02111749753200     -2.00221153720057
  H   -2.42553212888869     -0.34037889309973      2.47106303842869
