20
Coordinates from ORCA-job orca E -2558.859053153633
  Lu  0.32744945215466      1.05513159209974      0.73063616548414
  C   -0.31958757750728      1.05077364160892      3.99468882599216
  N   -0.00021667100287      1.08332753896246      2.86656826450269
  S   3.07253000543465      0.57348545288715      0.42412494882134
  C   1.98566364590363     -0.39496989847740     -0.33579484091691
  N   0.97013475169172     -0.85533676838818     -0.70669623196454
  C   -4.48644968961587     -0.46351351542197     -0.05113329479707
  C   -3.49212388560433     -1.07928976002619     -0.79354951916041
  C   -2.17557532367793     -0.72376406284863     -0.57272229752569
  N   -1.82777219656367      0.19697634818572      0.33692694225030
  C   -2.79427825461553      0.78899083002966      1.05547828875577
  C   -4.13086607221825      0.48793447387732      0.89140876366719
  H   -5.52512954888870     -0.72235409024965     -0.20353213708131
  H   -3.72496291863363     -1.82714291474404     -1.53663822085301
  H   -1.36399851384643     -1.17816415387743     -1.12214138971948
  H   -2.47537582164213      1.51692577751200      1.79061681925105
  H   -4.87060162227699      0.99133559955344      1.49525553476898
  S   -0.80275048863570      5.34520312416476     -1.31998417956949
  C   -0.39563508603482      3.97286538832517     -0.64643624834537
  N   -0.09393088129706      2.93939312875161     -0.14109602986401
