4
Coordinates from ORCA-job orca E -1245.635497363930
  Cf  0.25530176607449     -0.44605253916898      0.50075586803356
  B   -1.15014239802051     -0.11175735270239     -1.48709376076688
  In  -1.75713240822834      1.90166265672633     -0.61431449531458
  I   3.24846304017436     -0.52196276485496      0.16405238804790
