49
Coordinates from ORCA-job orca E -2536.649841323892
  Tm  -0.36361190999982      0.04985735930301      0.30415046437022
  C   3.80535932579914     -1.49606662618183      1.37690396062696
  C   2.52001290084969     -0.74666802947473      1.60810640545220
  C   2.40128370428749      0.08355413021354      2.72188562691204
  C   1.22936338693316      0.79292714375833      3.02988342208114
  O   0.17846372953278      0.76115328521761      2.33254841797110
  C   1.18241267530459      1.65607632816584      4.25933716586749
  O   1.60745640512029     -0.93783730831982      0.74455160937050
  H   4.55187888501796     -1.28914249582914      2.13904344910912
  H   4.19899951206768     -1.22425375271306      0.39743819549751
  H   3.59406473280230     -2.56559320310189      1.35733662343403
  H   3.24504429765592      0.17295341483591      3.38807731392713
  H   2.09413311291852      1.59620319097437      4.84771281653520
  H   0.32797043695676      1.35926701297056      4.86675770605176
  H   1.01528232658866      2.68743450384323      3.94773106602123
  C   -0.10089198382498      2.39877635563276     -0.34993476118579
  N   0.09016288544684      3.42739462856394     -0.84906124489221
  C   0.28490827242844     -0.64599701971247     -4.52600576389652
  P   0.18738803731540      0.53504497236754     -3.17164413170740
  O   0.27752240572544     -0.20940138508196     -1.85812539283529
  C   1.53585041618086      1.68899579184000     -3.39901267530196
  C   -1.34527492492136      1.43146791520304     -3.38877049996385
  H   1.21278254335936     -1.21029138567467     -4.44336655252790
  H   0.25611285453299     -0.13753270231219     -5.48894295918844
  H   -0.55559547818164     -1.33582542088932     -4.45996712987077
  H   1.48028316362701      2.14848469220544     -4.38588115795230
  H   2.48132731684907      1.15753960929290     -3.29621379248786
  H   1.45781374671529      2.45772171963272     -2.63032628768153
  H   -1.41657324538071      1.80881526849664     -4.40907243374357
  H   -1.36850794819628      2.26027474921392     -2.68265213716144
  H   -2.17653125082525      0.76231832541316     -3.17045851841378
  C   -7.30310422877144     -0.46921627822239      0.61739936062526
  C   -6.52606904815582     -0.65492467664876      1.75315306178657
  C   -5.14506897022528     -0.57649970998387      1.66704657281970
  C   -4.54122700169508     -0.31369207260115      0.44270488040181
  C   -5.31996929898834     -0.12556076087258     -0.69322695394322
  C   -6.70077238210186     -0.20351112474815     -0.60540781970952
  C   -3.05362800527198     -0.23116753865697      0.35231506023761
  O   -2.50030826621942     -0.00571793515783     -0.76249624749573
  O   -2.35524965396977     -0.39199910111791      1.39632312332816
  H   -8.38135705068634     -0.52834938784742      0.68581339471859
  H   -6.99822093406918     -0.85721259941007      2.70509621614123
  H   -4.51856266561272     -0.71064888327006      2.53764976445325
  H   -4.82917576676828      0.08658109098180     -1.63271584242319
  H   -7.30901725479177     -0.05421663055794     -1.48739168828920
  N   -0.70209175161952     -2.38533733114267     -0.16920573019571
  H   -1.35451410154815     -2.46553351421439     -0.93962174578561
  H   -1.03981487034797     -2.95932145769324      0.59319180719417
  H   0.19796091815763     -2.74072315668979     -0.46825601828112
