5
Coordinates from ORCA-job orca E -1017.221133532096
  Er  0.17106337329566     -0.60397128299927      0.47947513098994
  H   1.74305078929277      0.58630499594179      0.31548058633065
  H   0.21969261161190     -2.54265913480639     -0.36038998500609
  H   -0.12529760909869     -2.07365581429062     -1.00534707482005
  H   -1.31401916510164     -0.01305876384550      1.64284134250555
