25
Coordinates from ORCA-job orca E -2896.995183859590
  Lu  -0.25277644083570     -0.28439311606324      0.27013691479041
  C   0.44847544233049     -0.07496861237366      7.14143704689147
  C   1.53172576150398     -0.38672211058719      6.33049402037977
  C   1.38423396677127     -0.39819485907756      4.95190732366391
  C   0.15241826669022     -0.09805633836435      4.38444677224040
  C   -0.93166168716730      0.21251083730416      5.19557194075200
  C   -0.78312853074253      0.22453722503935      6.57382049610145
  C   -0.00986723432415     -0.11431760845240      2.89673008593586
  O   -1.12845868742972      0.15216529253780      2.38917009808917
  O   0.99036029516054     -0.40087329767453      2.17115958449550
  H   0.56375961182195     -0.06694914588091      8.21783570370499
  H   2.49025567709473     -0.62239565052291      6.77403093733059
  H   2.20898450229876     -0.63977173538819      4.29632078965900
  H   -1.87871485948540      0.43817622650161      4.72597896812473
  H   -1.62700021170520      0.46541109999738      7.20700553454971
  O   1.91852702471000      0.31527078521325     -0.52174276355156
  H   2.04159857761479      0.26789707004501     -1.48621010908525
  H   1.69524561996180      1.24821914923877     -0.37473562296289
  C   -2.82053738402033      0.15098274474264     -0.11008977620027
  O   -3.92081253734962      0.30218544098929     -0.27134126093254
  S   -0.63259190302478     -0.90743254807394     -2.44623738786577
  C   0.58813604054351      0.03220263317054     -3.09184941491478
  N   1.49785002699785      0.64575931392208     -3.47729749664437
  F   -0.25935156715266      1.73680572842922      0.01377494531785
  Cl  -1.24266977026250     -2.61864852467222      0.54538267013035
