5
Coordinates from ORCA-job orca E -2075.890414482723
  Dy  0.51809913351998     -1.00045238835635      0.34399302297023
  I   2.49998117594556      0.94111770592952      0.50422750046331
  I   1.51022775928725     -3.58936810445068      0.59268513009634
  I   -1.83228367215546     -1.41579551876816     -1.48102316253444
  I   -2.00153439659734      0.41745830564568      1.11217750900455
