17
Coordinates from ORCA-job orca E -1576.141657950311
  La  -0.28455852961883      0.94959392093230      0.17120926054717
  F   1.69239072428212     -2.10948415901642      1.58976461026323
  P   2.65873943319363     -1.01030873464503      0.96639646317546
  F   1.85483564546385      0.31551626466433      1.58187988452102
  F   3.60042341352530     -1.01175199820047      2.30748768957865
  O   -0.08963875843756      3.36327111543523     -0.11965737016034
  S   -0.28987179006055      3.07309155828482     -1.64247666882396
  O   0.85782777344292      2.11157870077181     -1.92833717223197
  O   -1.50844398550464      2.09253577487098     -1.58655539194071
  C   1.66091667329702     -1.16448802163339     -1.75580197150353
  O   1.20167257179866     -0.79778794171723     -0.47583650167166
  H   1.49541471753842     -0.35745365661267     -2.47277995707774
  H   1.15448338031186     -2.06929764016856     -2.10558210938299
  H   2.73803366191512     -1.37362964180295     -1.72418841462054
  N   -1.88473703052061      0.12479632689025      1.77119715254199
  N   -2.68409007198551     -0.29783965374396      2.55119342631144
  N   -3.44519782864127     -0.70054221430905      3.29628707047451
