4
Coordinates from ORCA-job orca E -748.401895250249
  Cf  0.73128814926585     -0.40009538028139      0.50362772474809
  Li  -1.47837034047137     -0.74083399053305     -1.95362052239032
  Li  -1.45283618625200      2.12464536194561     -0.40570305754921
  H   2.79640837745752     -0.16182599113117      0.41909585519145
