5
Coordinates from ORCA-job orca E -950.493625474096
  No  0.13869318839434     -0.93108277807004      0.21341150595544
  H   1.89741251209692     -0.50558667459775     -0.69071405704998
  H   1.12237232011104     -1.99207642937832      1.62698880882697
  H   -0.84581201730400      0.11967909100691     -1.20718621225421
  H   -1.61817600329831     -1.33797320896080      1.12955995452178
