6
Coordinates from ORCA-job orca E -3800.853293225895
  Bk  -0.28816674902198      0.24995806492085     -0.06284034330425
  Be  1.11075997691739     -0.42287030127089      2.64263827570848
  Sb  0.01821153195075     -0.53936880449202     -3.04766585158255
  H   -1.13739336603153     -1.50369144836029     -0.86989376130939
  Se  2.29910503046775      0.07020470958011      1.09190933312694
  Cl  -2.00250642428238      2.14576777962225      0.24586234736076
