4
Coordinates from ORCA-job orca E -665.892052956214
  Nd  0.51407050515626     -0.70013358314422      1.22338064594496
  Be  -0.09531472948003     -0.77654079437543     -1.47300279047685
  Be  0.18971350460132      1.69455861397974     -0.13105035791421
  O   -0.01197928027756      0.60400576353991     -1.05592749755389
