5
Coordinates from ORCA-job orca E -5837.498160915948
  Gd  0.08589114243313     -0.37011511840869      0.52928308390876
  Br  2.06524403715468      1.78506024237091      0.90287828826201
  Na  0.36366244403657     -4.09851596106970     -0.49010164712145
  As  -0.31563184099720     -1.80046240473724     -1.74593326946350
  F   -1.50467578262717     -0.16300675815528      1.87593354441418
