4
Coordinates from ORCA-job orca E -1180.378677974425
  Fm  1.21011376416197      0.21788279989925      0.17218263108008
  Sr  -3.51263473090591     -0.10873593700636     -2.21481980134361
  B   -0.84450300560110      0.07277036902647     -0.86467491984286
  Si  3.66003506333168      0.39793130142340      1.41068561959750
