24
Coordinates from ORCA-job orca E -1522.951929852141
  Ce  0.00581962270744      0.87011536868221      0.03326727251051
  N   2.26980812515526      0.30847606831540      0.45074120942470
  C   3.12482822460002      0.25204810376626     -0.58493734452401
  C   4.45327546800648     -0.07664389784165     -0.42589141306784
  C   4.90671677953985     -0.35408479259686      0.85636488167688
  C   4.02668661189381     -0.29607967758840      1.93098092868134
  C   2.70712652476466      0.03757206776179      1.70378349058302
  C   1.66591732122767      0.13275797829443      2.74919268990634
  C   1.86175468878989     -0.14672960547782      4.08380175516423
  C   0.79023346112680     -0.02896971697888      4.96505792522141
  C   -0.45265987086126      0.36373379225441      4.49375259371741
  C   -0.58505947527207      0.63059639693862      3.14700304281535
  N   0.44873111709834      0.51982655577480      2.29535607417246
  H   2.73124686893970      0.47906161733533     -1.57323189112926
  H   5.11053510129814     -0.11255376459941     -1.28189711730514
  H   5.94311472589965     -0.61474800212511      1.02247931230235
  H   4.37831302047171     -0.50937161869689      2.92890470254700
  H   2.82863505684006     -0.45853895380004      4.44833829870133
  H   0.93099623796391     -0.24739465071349      6.01485428156492
  H   -1.30491085751987      0.46118368533371      5.14961349765688
  H   -1.54076421645647      0.93742514583185      2.73348657780678
  C   -1.51364364397578     -0.84034294668654      0.17792923377682
  N   -2.14134833234061     -1.78051868115769      0.43165046992075
  Cl  -0.67135255989740      3.14047952797396      0.30719952787566
