4
Coordinates from ORCA-job orca E -958.071602739181
  Cf  0.35276981597664     -0.18640555797503     -0.45889955437819
  O   -1.03090388465927     -0.79235479475849     -1.34745254147326
  O   -0.54689006136191      1.54830121984631     -0.02015990866733
  O   1.82151413004454      0.25234913288721      0.38991200451879
