42
Coordinates from ORCA-job orca E -1774.273603069661
  Ce         -0.40305995369069      0.12373609922120     -0.19188974162428
  N           0.41583370947755     -2.19332416251386      0.77039578131133
  C           0.81518451750179     -3.05616134651745     -0.36998505849198
  C          -0.34029685494408     -3.16445374818571     -1.35162720842303
  N          -0.74336684275211     -1.84265146839573     -1.91350596965845
  C          -0.20195851475078     -1.53735286210649     -3.26749744384627
  C           1.06064219284498     -0.69615949594082     -3.19966886774426
  N           0.75287213382730      0.58150593955795     -2.51533612740826
  H           1.18586258620497     -2.12486924756054      1.43332668524084
  H          -0.34610741013455     -2.64570795527446      1.27226758140469
  H           1.10096304184631     -4.06478268483437     -0.04002615935813
  H           1.69895608735162     -2.61080609089354     -0.84239990871330
  H          -1.20935569700897     -3.58487663211793     -0.83127452223407
  H          -0.07478755943520     -3.86491129098178     -2.15472679571469
  H          -1.75888943824396     -1.83293741849417     -1.98196920765508
  H          -0.97264982931262     -0.97815060970702     -3.81237702248740
  H          -0.00667991195722     -2.45983596964550     -3.83102681635637
  H           1.44671527434646     -0.53689707037751     -4.21634801366412
  H           1.84755642840374     -1.20698495610394     -2.63229697636442
  H           0.14235381873072      1.14966332081918     -3.09941092630575
  H           1.60828275414353      1.10834343194410     -2.35897389382556
  N           1.83585072370268      0.26157984176201      0.14917814761695
  N           2.76855030043614     -0.30864776242752      0.66241861985103
  N           3.64786381551520     -0.85906329943488      1.14416734452176
  C           0.64722303733176      3.34642225800664      0.32156730448006
  C           0.30943509310319      4.59497175834326      1.11662880687454
  C          -1.21050418772285      4.48315686961214      1.26340165182137
  C          -1.40871407076040      3.00392154838036      1.53401500758293
  O          -0.32231221246796      2.33629797938296      0.77892178825726
  H           1.64651091410852      2.94427897680139      0.50315670347174
  H           0.48707986989336      3.49926369831293     -0.75482183151902
  H           0.62496037108945      5.50326290987477      0.59744411936679
  H           0.79906632227414      4.56673125221456      2.09610261549026
  H          -1.71088114513856      4.77274015681636      0.33275248892684
  H          -1.60701613013641      5.09677208813476      2.07605294365276
  H          -2.35749893666995      2.60478469966214      1.16917296547213
  H          -1.27169123089202      2.74004475826432      2.58733262932738
  I          -2.58973228966025      1.38021827515479     -1.83199157486002
  N          -2.46496796883266     -0.87584698728002      1.57495247072954
  O          -3.32747653483008     -1.22172124775987      2.32329941387782
  O          -1.58242159284462      0.02737028416834      1.88965047975632
  O          -2.31139542017360     -1.35342140775610      0.39194518642119
