39
Coordinates from ORCA-job orca E -1898.169508277518
  Ho  0.18519076854999     -0.31825680336238      0.49395174461589
  N   -2.27918702694692     -0.57819035164382      0.19030359297116
  C   -2.99508298096726      0.71530555597809      0.19686717907318
  C   -2.23571744729077      1.71906310636069     -0.65025917675211
  N   -0.88414182251234      1.92678596534977     -0.09404241454381
  C   -0.03154951808533      2.79563969516648     -0.92831584412631
  C   0.71243075612652      1.96550272062764     -1.95854484568550
  N   1.49623534475359      0.92760495050416     -1.25644391951759
  H   -2.44897138287869     -1.07772205235432     -0.67815542619799
  H   -2.63041288992357     -1.18369973099144      0.92603243312158
  H   -3.04030505936152      1.06666281376731      1.22872877476742
  H   -4.01968680803755      0.62286142934316     -0.16414088035600
  H   -2.78937308209716      2.65973166233248     -0.70752984294861
  H   -2.13570459692892      1.34053342944736     -1.67072025924865
  H   -0.99195179442890      2.35303060282937      0.82214007844957
  H   0.68884733447285      3.28932447628460     -0.27358106265196
  H   -0.61309643291908      3.57990819162277     -1.41896330673939
  H   1.33526258887189      2.60909687908139     -2.58069932405989
  H   0.00809129103528      1.45962904837894     -2.62043314642335
  H   2.32015400380480      1.33977142309996     -0.82640564367117
  H   1.85657795642835      0.24364463608884     -1.91464279416186
  C   0.36838116970771     -4.18896414621977     -1.85073837604003
  C   0.89190375839035     -3.09822537176776     -0.96878712573686
  C   2.14695753488924     -3.22246493088703     -0.37756622068930
  C   2.74997486968517     -2.25835112404416      0.44485120600811
  O   2.21660336436642     -1.13679999120605      0.73414583865241
  C   4.10103350829714     -2.52018667734744      1.03201241110003
  O   0.11468978822603     -2.08671878116777     -0.81034759473201
  H   1.08781818868131     -4.98849071245326     -1.99706971445339
  H   0.08804875364277     -3.76619652341783     -2.81557059880049
  H   -0.53755645940027     -4.59815782250425     -1.40170759572487
  H   2.70102520312175     -4.12711667186177     -0.57063955963089
  H   4.52933120283472     -3.45747170648335      0.69102729680825
  H   4.00657143962502     -2.53929588607153      2.11846540764318
  H   4.76814206151956     -1.69530206551229      0.78292921436561
  N   -0.46340075553448     -0.31303217277922      3.20215041886678
  O   -0.38015611076253     -1.38758665424857      2.51619074799544
  O   -0.25044512307378      0.76343995911681      2.51907919064116
  O   -0.72223159588141     -0.29310636905576      4.35822913781228
