46
Coordinates from ORCA-job orca E -1798.591644098612
  Eu  -0.53124366689785     -0.21743321206456     -0.04130267132666
  C   3.77186844916183     -1.56704587751921      0.04791331886505
  C   2.36076266155328     -1.53358111964126      0.52515191032403
  C   1.96411515204854     -2.24995485776162      1.65023097505090
  C   0.66803268233475     -2.26103867059065      2.17407663624504
  O   -0.30109465829367     -1.57334078728778      1.67496659487434
  C   0.34262307698331     -3.09058228218378      3.36956614610667
  O   1.54304371846537     -0.81029864348390     -0.17048683230870
  H   4.39931296928416     -2.21096660492144      0.65529941845447
  H   4.17282337243798     -0.55245632640199      0.06112655686632
  H   3.79409937534048     -1.90494606885585     -0.98869375211101
  H   2.71019979599515     -2.84435976981385      2.15278623175483
  H   1.18930613588287     -3.67769984710972      3.70966473972315
  H   -0.49059904460552     -3.75159313097021      3.12949654939153
  H   0.01070078185391     -2.43665589019672      4.17748941047687
  N   -1.30495574353656      1.47695747081336      1.54876844865479
  C   -1.74331655429848      1.16887399273596      2.75118676759482
  C   -2.23220627305278      2.10089863719554      3.68457529668206
  C   -2.28732379885447      3.45978439458614      3.32463316244717
  C   -1.83291893673946      3.83506221127397      2.10076413034684
  C   -1.28659832679384      2.84537927747705      1.17840142228471
  C   -0.72469929258260      3.16063349947219     -0.02688307461948
  C   -0.60647667441800      4.51913549788188     -0.52849041043690
  C   0.03570804608392      4.76767232131334     -1.70236514977722
  C   0.57543111049685      3.69173731465198     -2.42612951507918
  C   0.40709491509203      2.39126654851257     -1.92676048088512
  N   -0.21468414483519      2.09565140207421     -0.80458022403283
  H   -1.71886851826016      0.11690654875771      3.01581313093268
  H   -2.57125025405084      1.75486061609886      4.64903755304285
  H   -2.68491127736240      4.19220117401568      4.01199122175182
  H   -1.86828939217313      4.87225913790355      1.80905995625381
  H   -1.02330267249517      5.33567250909251      0.03867154361853
  H   0.13096515256627      5.77837060645250     -2.07188762893700
  H   1.10201012092204      3.84037844152143     -3.35630873494609
  H   0.81101319242083      1.55750067862534     -2.49390722141983
  C   -2.39429123538149     -2.94635553144167     -4.10128840689792
  C   -3.15600608192481     -1.88090269856651     -3.64211487565115
  C   -2.68229025363559     -1.13584250908015     -2.58248273846741
  N   -1.51245802615585     -1.39978579082803     -1.97554075754926
  C   -0.78171868645817     -2.43458994261965     -2.42894453318994
  C   -1.18471966419945     -3.22748982372129     -3.48330435227215
  H   -2.73957462558843     -3.54937233910017     -4.92956696903970
  H   -4.10355264440571     -1.63058983165026     -4.09533969118584
  H   -3.25421662506676     -0.29810362851873     -2.20137133269037
  H   0.15931968346978     -2.62545177599287     -1.92432576629321
  H   -0.56246332032691     -4.04706532013395     -3.81049600262637
