22
Coordinates from ORCA-job orca E -1524.155543605912
  Gd  -0.35894150217664      1.44426305088536      0.78673140433543
  C   1.15161984744285      0.09224356506292      4.76329438091745
  C   1.16922683909704      0.24107477504514      3.27969810014360
  C   2.31041320015084     -0.08136593573575      2.54409930173275
  C   2.41907417287977     -0.02381864795797      1.15361897615619
  O   1.47264230353628      0.38321089794950      0.37771278453945
  C   3.67219377105143     -0.45437769679407      0.46946127252524
  O   0.07384893366109      0.67059505540688      2.75034955008605
  H   2.08018216478659     -0.31445671381973      5.15029156426839
  H   0.31830015988160     -0.55102744092000      5.04612019020232
  H   0.96628736240439      1.06993383821585      5.21001057200169
  H   3.16658143597751     -0.44015776016165      3.09215019843912
  H   4.42118571457037     -0.81648650683804      1.16607238819903
  H   4.07233949614350      0.38965645918524     -0.09349220656317
  H   3.43086298231098     -1.23444453535470     -0.25293756489831
  I   0.10010422953110      4.22857713049729      0.72887362168357
  C   -2.88528241154257     -0.65156098664170     -0.41998839701977
  O   -2.37273885758233      0.70634641191657     -0.32296078599064
  H   -2.93352200965994     -0.95268264657631     -1.46238450605023
  H   -3.86373816764196     -0.70931013562870      0.04783127540723
  H   -2.18926102388440     -1.29365944141043      0.11251366419100
  H   -2.97427864093756      1.30304726367432     -0.78076578430648
