5
Coordinates from ORCA-job orca E -555.968518274465
  Pu  0.14859732930412     -0.80965248810083      0.29122693518409
  H   1.69385643242675      0.39891645057295      0.12138183208090
  H   0.70874251234859     -2.68913176730041      0.49727341714720
  H   -0.64466926720251     -1.24064749138899     -1.45950359590407
  H   -1.21203700687695     -0.30652470378272      1.62168141149188
