6
Coordinates from ORCA-job orca E -530.909353265908
  Np  1.04938779241191     -0.00225681954525     -0.64281133148205
  Li  0.10887987363538     -0.15789473349622      2.21364072560594
  Li  -1.69733819207566      0.06381405728077     -0.49563588684306
  H   -0.61940459038595     -1.08893293774042     -1.33100645892584
  H   1.70728414282730     -0.07659144826201      1.41480444918831
  H   -0.54879902641296      1.26186188176313     -1.15898149754331
