4
Coordinates from ORCA-job orca E -1788.977562028620
  Am  0.50142188579931      0.91946489682694     -1.38701862476914
  S   -0.78726278100621     -1.14662984855046     -1.03395477661853
  S   -0.83650647039005      1.36312213449229      0.62650895190857
  S   1.71883736559694     -0.31406718276877      0.35786444947910
