7
Coordinates from ORCA-job orca E -15919.326862811273
  Ce  0.33209429643207     -0.28075187068396     -0.27946764641290
  Br  -0.41684093080732     -0.04657008035877      2.56962309446707
  Br  0.03906000036822     -0.12461371965021     -2.87970945336491
  Br  -0.00775984951573     -2.86973938182845     -0.05554135895744
  Br  -0.44293808239354      2.56592265106511     -0.12701425224095
  Br  -2.37527701902910      0.59160976292782      0.59134315024450
  Br  2.87167158494540      0.16413263852847      0.18075646626463
