26
Coordinates from ORCA-job orca E -1291.775017615211
  Pm  -0.16694275197080      0.89679239726062      0.19258461815218
  N   0.37415256972143      0.38566375514320      2.49819674163496
  C   -0.52120696971051      0.44108345381357      3.48061917379882
  C   -0.21048361293577      0.22403940218402      4.84951564824774
  C   1.09406330233394     -0.05403674682014      5.20200438722238
  C   2.04899861922622     -0.12455113685396      4.18839836634301
  C   1.68615580532056      0.08850235584265      2.83566327370827
  C   2.62427376661797     -0.00160830026404      1.75879570969495
  C   3.99578677073978     -0.29653722597036      1.95500978068948
  C   4.86616715481459     -0.39585467135068      0.86989498723679
  C   4.35362979348162     -0.20647669459198     -0.39692359156647
  C   2.97368682506480      0.09595733008348     -0.54023256564453
  N   2.12803211637777      0.20523042108201      0.48121237417560
  H   -1.55283025015850      0.66540559631766      3.22044674090467
  H   -1.00428611372413      0.28625634007880      5.58621892672205
  H   1.37534951425299     -0.21829053890293      6.23644709535082
  H   3.07251031265041     -0.34894610609477      4.45414800519470
  H   4.38857149680011     -0.44978026155861      2.95037321083332
  H   5.91599461156403     -0.61975261158593      1.02456243016346
  H   4.97272246558718     -0.27671755236334     -1.28498383909101
  H   2.58675485378805      0.24819983158123     -1.54550459924495
  C   -0.63119276637647      3.59101560100087     -0.16014801865395
  O   -0.83790713521663      4.66953420912373     -0.31577570587989
  O   -1.73806308959314     -0.67907513426089     -0.51796353351005
  H   -2.59164328402652     -0.50581092119486     -0.96506236048139
  H   -1.69539400462912     -1.65474279169936     -0.47679725600118
