40
Coordinates from ORCA-job orca E -4772.985617278307
  Lu  -0.05875990857375      0.48064172118184     -0.05519991442872
  N   1.85960721934018     -0.15818162997412      1.45073369286421
  C   2.20970034613989     -1.58428832133937      1.37975890490554
  C   2.13167256788446     -2.04691506753141     -0.06302766905467
  N   0.77799341282737     -1.77809212291991     -0.56716751088792
  H   2.63508038875448      0.42125658209150      1.14669087277765
  H   1.63312921134205      0.10026416377006      2.40277950004964
  H   1.47493452266105     -2.12770684774565      1.97522065586469
  H   3.20012341867350     -1.79653477534893      1.78876440746946
  H   2.40675792702736     -3.10191880493748     -0.13202482144259
  H   2.83489292804517     -1.47946000527177     -0.67514253741258
  H   0.10380216073467     -2.39967671238040     -0.13175401722608
  H   0.71465369827564     -1.90789783994863     -1.56950324569635
  Br  -1.36964888876153     -0.81973184356048      1.98254580523150
  C   -3.98257066417245     -0.09869521062382     -0.69952428295812
  C   -2.99944818538969     -1.16926422012980     -1.11377229884710
  O   -1.70004491434400     -0.62140904782056     -1.44397404303423
  H   -4.93663775238555     -0.56094493854394     -0.44364309878267
  H   -4.14995459544850      0.61429629593940     -1.50624805519378
  H   -3.61468625607933      0.43306856422143      0.17687476226829
  H   -3.35472576985377     -1.72706812413440     -1.98173645060193
  H   -2.81727814312237     -1.86529224375015     -0.29951726225208
  H   -1.79102909536443     -0.10276400453634     -2.25653661975106
  N   1.76657405133547      1.02879239022714     -2.18000634374099
  O   0.69035778231336      0.43766096585971     -2.37464995957708
  O   1.94366880650061      1.31085731346163     -0.95909375639018
  N   -1.18248835975416      2.23909301743791     -0.88839631635956
  N   -1.80869874929226      2.17916174099138     -1.90395839262556
  N   -2.41222858355437      2.09688223792442     -2.87025532492696
  C   0.63434082649083      4.65839840257342      3.06029961417506
  C   0.08666202940796      3.51068601672358      3.60910667610862
  C   -0.04801450819154      2.38939759076086      2.80956883365959
  N   0.32893051290291      2.36507260671548      1.52701792442316
  C   0.84891978922781      3.47916867120982      1.00059660886200
  C   1.02344682073507      4.64053749953959      1.73144600862873
  H   0.75001268478163      5.55343738494839      3.65651534918404
  H   -0.24230662788940      3.47782800152061      4.63742160081916
  H   -0.48812453321349      1.47652291144507      3.19056373866351
  H   1.12272628860810      3.43099721243727     -0.04368121362249
  H   1.44825814138108      5.51222046951651      1.25580817885777
