37
Coordinates from ORCA-job orca E -2415.390912488867
  Er  0.09664686479161     -0.68663483165427      0.02831795698787
  N   1.57278069046639      1.27428880735664      0.06572201314052
  C   0.59896903748035      2.36954694775163      0.26538390202183
  C   -0.29175220771702      2.49132096723493     -0.96087794792336
  N   -0.83184086310181      1.16983381326342     -1.37494452611722
  C   -2.30553657140997      1.10155162351365     -1.48308752936576
  C   -2.90655833480523      0.68525315439051     -0.15451738981644
  N   -2.36292258657939     -0.64049960033902      0.21348562935545
  H   2.18887727756106      1.20598075227030      0.87024393902164
  H   2.16667853895906      1.46032473544206     -0.73712123726280
  H   1.08189631263953      3.32630004881433      0.46911359159002
  H   0.00118063942846      2.11366635448974      1.14480069015223
  H   0.27334897094140      2.92287868279677     -1.78856505542864
  H   -1.11061102566643      3.17767426187227     -0.74523957022353
  H   -0.43782226633502      0.93751638677357     -2.27970854387704
  H   -2.55172365184328      0.35462126559567     -2.24025156883354
  H   -2.72727546400226      2.05138673614171     -1.81667211469066
  H   -3.99527352823024      0.68415641729167     -0.21587436445585
  H   -2.62234944689160      1.39329032290848      0.62691899512747
  H   -2.77125936276301     -1.35886788424192     -0.37921131431138
  H   -2.62425117197888     -0.87705537746341      1.16527550094710
  F   3.97994253045085     -2.54071854290508      1.95277470156899
  P   2.57220312911585     -1.92915592546626      2.24066832281626
  F   2.13620056107490     -1.86850989127448      0.65101787874931
  F   3.02579643555382     -0.41656191251882      2.31226625567804
  C   -0.34091059251509      0.87176565217263      3.88517973411230
  C   -0.28192080393869     -0.57226241749996      3.42522361465428
  O   0.08653087101206     -0.66830977082816      2.07166826521080
  H   -0.61078285909028      0.93347973368555      4.93918731780089
  H   -1.08873330754145      1.42932249245870      3.31625814251151
  H   0.62831490863762      1.35572006021539      3.75516000427017
  H   -1.25480397159134     -1.05298515005451      3.57808209408678
  H   0.43192856449182     -1.12637106425142      4.04487869224643
  N   0.38020994219710     -2.27774686445467     -2.21318065063725
  O   0.48956465720007     -2.99296537630852     -3.14895516160542
  O   1.01524977017973     -1.17026574748560     -2.09400288932574
  O   -0.40369168618060     -2.54496885969363     -1.22061737817532
