47
Coordinates from ORCA-job orca E -1281.267101009587
  La  -0.55094260075644     -0.81357602081366     -0.16588310622210
  C   -2.08183066258074      5.29881313652698     -3.57974358982545
  C   -1.31102932284964      4.33102516886086     -4.21026962201703
  C   -1.03207313045790      3.13863267000033     -3.56157494320446
  C   -1.52444790802271      2.91453525433935     -2.28107684947576
  C   -2.29576413908296      3.88395124521657     -1.65038537092157
  C   -2.57445233763245      5.07558576052199     -2.30083069171064
  C   -1.21404566504189      1.63364364034546     -1.57644098371829
  O   -1.64086075140889      1.45500264247601     -0.39892308803204
  O   -0.51248959968230      0.75847841613595     -2.16426592831377
  H   -2.29922474829692      6.22978227619238     -4.08648973770086
  H   -0.92822505129937      4.50806516742669     -5.20635277280173
  H   -0.43319980715925      2.37067297902004     -4.03054370297446
  H   -2.66728358716605      3.68627505995671     -0.65476742732718
  H   -3.17493034565744      5.83107417644775     -1.81235140348600
  C   4.18274746426539     -1.47497234286419     -0.58925005064322
  C   2.89298367785489     -1.27617523200837      0.16418688545008
  C   2.94390978448455     -1.07386644046085      1.55446848943531
  C   1.81998366280343     -0.95134558208373      2.37861518032643
  O   0.61804795501421     -0.95038512573158      1.97893398583986
  C   2.01618269792895     -0.81432292855946      3.86635140081890
  O   1.83751658097230     -1.30882317157853     -0.52399662111306
  H   5.05798865749424     -1.42360139264963      0.05284434892510
  H   4.25568754593519     -0.71582492651673     -1.36830266100085
  H   4.15101428692992     -2.44525848052036     -1.08504737805818
  H   3.91486901344247     -1.06609690991746      2.02520692845974
  H   3.06400539336101     -0.81115636454679      4.15433240948649
  H   1.50535265954446     -1.63866157616764      4.36461494826231
  H   1.54302964526535      0.10910134736189      4.20103016595180
  C   0.21724081941733     -2.06512517803114     -3.52963268478971
  O   -0.28974609860337     -2.36378679604326     -2.23114080777197
  H   -0.39266524726566     -1.31105308704987     -4.02596527476670
  H   0.27230684182225     -2.96876586111291     -4.13661121002790
  H   1.21800721577469     -1.66842091176354     -3.38389487375002
  H   -1.17267010440301     -2.75214917018774     -2.25315794317873
  F   -2.16674317615283     -2.40413746111775     -0.45168090885965
  C   1.37749612493397      1.64389494609098      0.25191303848543
  O   2.07234570893532      2.52480492730149      0.28546488825899
  C   -3.75218310256507     -1.34012851184009      3.69194727418246
  C   -2.35306152951171     -1.25862807866691      3.12002893850023
  O   -2.38067927349628     -1.03111181135947      1.71027699340989
  H   -3.71231846359784     -1.48650336543514      4.77168383146935
  H   -4.30067550020363     -2.17794503119431      3.25895332320799
  H   -4.30394731573838     -0.42445645789133      3.48415675809739
  H   -1.78357495382939     -2.16579948890815      3.33604538219831
  H   -1.80158389875653     -0.42099574668864      3.54141029269088
  H   -2.78286741496125     -1.77866536251225      1.23871416823443
