5
Coordinates from ORCA-job orca E -835.224877134146
  Am  -0.44594584256698     -1.64481570568723      0.82803047733734
  Be  1.36979217144366      0.68192733903572     -1.08731148102528
  O   0.53923656517959     -2.99326150106325      0.40303726719662
  O   0.70505879040968     -0.34608375800510     -0.37157755773814
  O   -1.47365168446594     -0.34480637428013      1.29988129422944
