39
Coordinates from ORCA-job orca E -2617.442989305084
  Lu  -0.28184023448431     -1.00578116720677      1.58869756106921
  N   1.85862371828482     -0.33377723562689      0.70703093248165
  C   2.36819785916460      0.85254963482387      1.05192811892410
  C   3.56728752159268      1.31939508973674      0.54514455977096
  C   4.25764229117686      0.51989466504344     -0.34823036798554
  C   3.73767615477673     -0.71711358907792     -0.69881864560529
  C   2.53215749142826     -1.11979192835945     -0.14947664380559
  C   1.90955498278748     -2.44436117084068     -0.43038174534519
  C   2.46685620677330     -3.37495711755318     -1.29014390370139
  C   1.83300324240638     -4.59654388572553     -1.46435942317939
  C   0.66375725356482     -4.85930574636811     -0.77406371758248
  C   0.16168120344732     -3.88073490946675      0.06508721718681
  N   0.76584026678168     -2.69875887229761      0.22884326946823
  H   1.78836709425433      1.42347331018362      1.76499391971210
  H   3.94597195486839      2.28250461189044      0.85209508397616
  H   5.19913502282520      0.84804616340504     -0.76607451953042
  H   4.27643868853249     -1.35237809514931     -1.38385133287272
  H   3.38258987972111     -3.16424440422566     -1.81937934192450
  H   2.25639658632317     -5.33492007938081     -2.13082261897012
  H   0.14592469307694     -5.80108040296400     -0.87488227095322
  H   -0.74354692765775     -4.02619427078098      0.64002986065961
  F   0.03094142436271      0.34598700843007      3.00318359691246
  F   -1.50415315449126     -2.47533473964171      2.10904532057417
  C   -2.30602285399649      3.27719207563281     -1.73624471591986
  O   -2.15215402766278      1.95703441285776     -1.18189128265317
  P   -1.43158057913943      1.79966106239425      0.24004405764425
  O   -1.77522998870348      0.14096973050695      0.38655618441562
  C   -3.12679555094575     -0.36232895041411      0.11541490762671
  O   -2.55446638204471      2.45125624262409      1.17587120721676
  C   -2.24953944021481      2.75009342147606      2.55750447892340
  H   -2.61226063172261      3.14535898082521     -2.76806565489175
  H   -1.36212786522200      3.82259438004813     -1.70463235778999
  H   -3.06924418137544      3.82358416583010     -1.18737275843098
  H   -3.24574129708476     -0.46580782179318     -0.95727978417891
  H   -3.84903315814954      0.34353649526269      0.51375610216645
  H   -3.21260608995366     -1.31945186722230      0.62115127910227
  H   -2.77426362823653      2.03932066751157      3.19008734834024
  H   -2.60108552381270      3.75708506356564      2.75686802846865
  H   -1.18025202125132      2.67412907204651      2.75103805068070
