7
Coordinates from ORCA-job orca E -15882.177771973775
  Pa  0.00001658249036     -0.00001684212739     -0.00039956150989
  Br  -0.00000927395539      0.00002846879615      2.68979020460559
  Br  -0.00003451122300      0.00001754793062     -2.69027251585827
  Br  0.00000121968596     -2.66643773554085      0.00020523062198
  Br  0.00001299222152      2.66641325548881      0.00022647904863
  Br  -2.66640102132840     -0.00001267593655      0.00021564730423
  Br  2.66642401210894     -0.00000201861079      0.00022451578774
