42
Coordinates from ORCA-job orca E -2140.800616967661
  Sm  0.02538835130511      0.69544182090936      0.04859945362915
  N   0.20475735322920      0.25990701259038      2.59953266732237
  C   -0.32137360632868      1.29351600368476      3.47662316356276
  C   -0.18483719175734      1.04992719886524      4.93675820824498
  C   0.60805080756793      0.05012617317248      5.39746572358264
  C   1.25750838290021     -0.78614716695736      4.48262463505958
  C   0.99396427551747     -0.64990047595228      3.08929614430739
  C   1.65512195058259     -1.56602181337504      2.10891007078161
  C   2.31309263131943     -2.72405899167506      2.48985732015111
  C   2.94222284531745     -3.49241443778520      1.52059638107887
  C   2.89787980336715     -3.08098573448670      0.20253547351184
  C   2.20156923603966     -1.92212916685191     -0.10133056995828
  N   1.58997555549505     -1.18489792586365      0.82492760423215
  H   -1.36566904372830      1.45788989579168      3.20154198300472
  H   -0.68410475174858      1.74193477528125      5.59936708249239
  H   0.75688435992680     -0.09344458933361      6.45826081714151
  H   1.95133800125366     -1.53228488519702      4.83287503657563
  H   2.33476520240332     -3.03864484985929      3.52116837472620
  H   3.46136074975109     -4.39879100871983      1.79909379265014
  H   3.38392391461382     -3.64169765972197     -0.58183559932206
  H   2.12154489252251     -1.55663953816693     -1.11706773172723
  C   -4.08879099173394      3.00673154216699     -1.88635515713620
  C   -3.03213931123409      2.11048384381478     -1.44777057452623
  N   -2.19448191947685      1.41551301644642     -1.09179531774182
  H   -4.05531831076264      3.91481944312941     -1.28796339531248
  H   -5.05502761604098      2.52405394913281     -1.75807803148524
  H   -3.94501312788573      3.25656708490314     -2.93507942996728
  O   -1.08124857547992     -1.44522945441296     -0.74537104032766
  H   -2.00213974826474     -1.68973243225233     -0.86559540595284
  O   1.40598576900196      2.39264953029807      0.97635886857269
  S   0.35554356010063      3.17307388367030      1.72806437367837
  O   -0.94841782149133      2.62462006163809      1.19108209942295
  O   0.39189181896265      2.52551225720076      3.24610562130157
  C   1.57512717185270      2.16751155818200     -3.21651034401745
  C   1.30098555652314      0.67740920443458     -3.13404944977412
  O   0.76064292208596      0.32921097207669     -1.88183807725254
  H   2.00198697316906      2.43677399529412     -4.18265946697750
  H   2.27500673817208      2.46897317466663     -2.43608978998294
  H   0.64873027636773      2.73042315522893     -3.08559126311406
  H   2.22988462007801      0.12035163277159     -3.29880833760038
  H   0.60768879504478      0.38128895546777     -3.92875300571653
  H   -0.69716049853812     -1.33559001020714     -1.62870290713798
