50
Coordinates from ORCA-job orca E -3051.698929603654
  Lu  -0.38672064783348      0.95063272222834      0.88194563402197
  C   3.63746244117099      0.16956754944952     -1.08271486469620
  P   2.11524189506505     -0.75224928583194     -1.08987997436888
  O   1.05934397638174     -0.02169199125225     -0.18678262719938
  C   2.40788058362813     -2.38694104295549     -0.44885540760333
  C   1.49342299327865     -0.86687456137088     -2.75354127857514
  H   3.47523218238867      1.16826820342482     -1.48636299393893
  H   4.37246946320115     -0.34180573938804     -1.70619236581691
  H   4.03130998505942      0.24032671929769     -0.06940857425110
  H   3.14533074890005     -2.89338434239626     -1.07348495424800
  H   1.48674049042242     -2.96846220829593     -0.46170605635132
  H   2.79661329845855     -2.33005822616570      0.56734640116101
  H   2.22574040420691     -1.37998362284463     -3.37874602609093
  H   1.32486280677933      0.12844339720143     -3.16331294844071
  H   0.56339777821383     -1.43421138431394     -2.77030463399666
  C   0.36432948470795     -0.51764291606707      4.47315313153308
  P   0.22556197043238      1.08596599395141      3.63334995547429
  C   -1.05720222724418      1.98412806805978      4.55235140478473
  C   1.77582997131464      1.95219715353675      4.00523495907228
  H   0.60711867676990     -0.35665451319225      5.52414154495917
  H   1.15180695255858     -1.12410344586523      4.02731887916181
  H   -0.57961381753249     -1.05875070454757      4.42176812429697
  H   -0.78935242158032      2.02339966132610      5.60884497335961
  H   -2.01987507913057      1.48211318880155      4.46002559005681
  H   -1.15393404009028      3.00452045535739      4.18317205447789
  H   1.91858675748119      1.99672142969711      5.08540236711434
  H   1.74798232757585      2.96975609260347      3.61803241678623
  H   2.62387096527305      1.42912907647937      3.56519881837285
  C   0.66626214639386      5.69630144534798      0.13233122362451
  C   0.33253458860842      4.30480584025106      0.34534656449099
  N   0.06422279782530      3.19881061895604      0.51446549421346
  H   0.01827907460678      6.32236357461767      0.74627784002573
  H   0.52442409409781      5.94495141042021     -0.91974937849977
  H   1.70701092725493      5.86522922672832      0.40953299058205
  C   -4.66756457338801     -1.32175283880097     -1.36390980454988
  O   -3.43367116538322     -0.74051429746609     -0.80257243008055
  P   -3.40911051956721     -0.06131804887889      0.61511603602847
  O   -1.91546582510585     -0.66305794548898      1.18819423997968
  C   -1.91532798336358     -2.05874826364257      1.63644344008031
  O   -2.51301373544702      1.34986236051043      0.25758427412184
  C   -3.28098213970809      2.42801290689834     -0.38138703278002
  H   -4.46504839252590     -2.36809527206947     -1.55932380228620
  H   -4.87801573035488     -0.79185370369867     -2.28538286477676
  H   -5.49050559633751     -1.21414342721318     -0.66078024934417
  H   -0.95662152363521     -2.24578790372791      2.10897464509215
  H   -2.04662244059660     -2.70587790314429      0.77407262416192
  H   -2.71796995104006     -2.20393634370539      2.35616130447778
  H   -2.68222905523941      3.32868799103985     -0.31668203837202
  H   -4.21509974630760      2.56595919059725      0.15833344311359
  H   -3.46342317064412      2.16234565554147     -1.41824006835890
