4
Coordinates from ORCA-job orca E -989.540878337376
  Dy  1.43663650138003     -0.25411794486433      2.05878006603013
  Be  -1.09397466760085      0.69743619173120     -2.83335235955836
  Be  -0.19733060069054      0.29040081772476     -0.97047126017438
  O   0.41485406670257      0.03177174605705      0.27120465353086
