17
Coordinates from ORCA-job orca E -2159.635730781384
  Yb  0.39749007871845      0.38969764963652      0.04824473112780
  N   0.28822886837619     -0.09360521940573      2.42790105478003
  H   0.59327241163039      0.67243321713207      3.01547000984209
  H   1.02320227240405     -0.82017028689727      2.45977079692624
  H   -0.57592227951877     -0.46423784640094      2.80040620290627
  N   0.68452869510169      3.08293702155720     -0.74717505945833
  O   0.72927400272170      2.09930629145699     -1.53171397327068
  O   0.51126458504727      2.75982926610571      0.44964647395389
  O   1.24279083462766     -1.58165261982594     -0.29391753156494
  S   2.61798078741395     -1.37287858414797      0.45990827909113
  O   2.54712685802985      0.18157353544873      0.62883951158559
  O   2.42566855118100     -1.94801735087096      1.82142705196683
  C   -2.98014446148121      0.00974554307725     -0.28860569065549
  O   -1.61715813343583      0.18353715995921     -0.21812004076251
  H   -3.45576445144347      0.06130073845625      0.70345266078938
  H   -3.25178475139370     -0.96491257397906     -0.71923898164352
  H   -3.46325851796591      0.77944505981802     -0.90816478036769
