21
Coordinates from ORCA-job orca E -2014.351169420099
  Er  -0.25207610020610     -0.54754374459488      0.34282545252170
  C   -1.72565378212522      6.25695193134553     -0.14065546274991
  C   -2.55349624562600      5.43075345782621      0.60866359373785
  C   -2.28498684876510      4.07309780120911      0.69257625028589
  C   -1.18323704412487      3.54220634822784      0.03340728449749
  C   -0.35143438785786      4.36942458770506     -0.71073544528425
  C   -0.62565472025579      5.72578769511980     -0.80134235912581
  C   -0.89411440691871      2.07454001673026      0.12619256515933
  O   -1.71835917302095      1.31488726317927      0.69193500174689
  O   0.18143429719253      1.62841102482452     -0.37531358094084
  H   -1.93716374049936      7.31666885924886     -0.20820034561227
  H   -3.40734677650084      5.84634415304993      1.12799698358778
  H   -2.91197323027445      3.40585450632571      1.26763357473513
  H   0.50135171448413      3.92949511092817     -1.20894454310263
  H   0.01894620586294      6.37027026285314     -1.38500451515050
  I   0.30156390981355     -0.52659560908288      3.26604997309388
  O   -1.76579301659869     -1.63794110239912     -0.42770509612958
  H   -2.65579198309360     -1.88474472615665     -0.65037809880577
  N   1.82163632499698     -1.97091444428989     -0.98381588530503
  O   1.38856359161761     -2.30726774149315      0.13969075886717
  O   1.31228541189993     -0.89988565055737     -1.40477610602652
