4
Coordinates from ORCA-job orca E -647.501792331870
  Cm  0.12424188090681      0.17272991274557      0.33475557319910
  Li  -1.11325243987797     -1.60031389619365     -2.19644775854189
  H   -0.54874283194561      2.06603891657462      0.20912854508361
  H   2.13424339091676      0.18343506687346      0.21596364025918
