52
Coordinates from ORCA-job orca E -2227.461037207587
  Sm  -0.28284745357592      0.17600053400135      0.27525784942073
  N   -3.01746530340111      0.80429517249159      0.72200862436072
  O   -4.14685829202602      1.02352175571634      1.00100889735414
  O   -2.63895493660602     -0.25788847872076      0.10484869532426
  O   -2.05528800629564      1.60652901893651      1.01807171769447
  N   0.87281387030123      2.30259972272186      0.98846208177550
  C   0.25370519498945      3.47731858663348      0.81794880985534
  C   0.82078439398021      4.68862736589496      1.16585156183946
  C   2.08443203085094      4.68053693439258      1.72721831215113
  C   2.72901474146379      3.46833407372299      1.92094601949300
  C   2.10220802644587      2.29224352597101      1.53983691648451
  C   2.73588562426015      0.95678245821969      1.73728357273424
  C   4.03149921856471      0.81548844359554      2.21417319933275
  C   4.55549662630552     -0.45297972005903      2.40351516894825
  C   3.77356425739129     -1.55724961672136      2.10974829593020
  C   2.49857028723573     -1.34156555752013      1.62311970350723
  N   1.98407172120915     -0.11888406505138      1.43517965873756
  H   -0.74603245381461      3.43918631514562      0.40752105206408
  H   0.27558084084912      5.60697046103097      1.00749983365157
  H   2.56457029900656      5.60323143388489      2.02164209466645
  H   3.70651100570775      3.45540670665283      2.37558269415238
  H   4.63724978953567      1.67867436862896      2.43860183708951
  H   5.56268362615006     -0.57293753433043      2.77742870066194
  H   4.13937463739533     -2.56356278931116      2.24876506897069
  H   1.85487201572293     -2.17391202672790      1.36935252914978
  C   -0.36454638400060     -1.75332867935678     -1.42207192896864
  O   0.12083044110016     -2.17408518312718     -0.38084084538013
  C   -2.32989556876709      0.03113435005045      4.13426968607294
  C   -1.92673596133198     -1.07145855099235      3.18800065095168
  O   -0.68820461464184     -0.73311521163486      2.47372537778035
  H   -3.26066476002116     -0.24200883625132      4.63012879134151
  H   -2.48720005982259      0.97014044304489      3.60587599687333
  H   -1.57723323535559      0.18169059594853      4.90945666701550
  H   -2.66304082144705     -1.24236942230618      2.40752668105937
  H   -1.75427238964362     -2.01479816513677      3.70317008732858
  H   0.02586977305190     -0.67411810582457      3.11632069895619
  C   1.86670838770614      0.65567837758076     -1.55425640815801
  O   2.71709087797749      0.85290737764127     -2.25267759839274
  C   -1.18685394774348     -4.75186410525144     -4.29609319237448
  C   -1.44637468007446     -3.41412099277929     -4.56755966692680
  C   -1.15709591865046     -2.47735803613415     -3.60448767020415
  N   -0.63010396035100     -2.85111336830491     -2.42612673114908
  C   -0.37260120152395     -4.14271249635520     -2.14242479958070
  C   -0.64345886920134     -5.11909174800770     -3.06844664654317
  H   -1.40865790201441     -5.50767248839001     -5.03698920808924
  H   -1.86946899649053     -3.10204078905783     -5.51017177967697
  H   -1.32621469902583     -1.41716529859462     -3.71984868314700
  H   0.04302256953115     -4.33246632153759     -1.16419583139761
  H   -0.43580214891183     -6.15201121191981     -2.83301141132745
  N   -1.03446471425502      1.56485566600267     -1.85712444371784
  N   -2.10678476687897      1.97942593440284     -2.16953031612339
  N   -3.13288821086026      2.37979917709226     -2.48549037157216
