58
Coordinates from ORCA-job orca E -2665.255231971889
  Gd  0.15533837026140      0.39456203650117      0.04997676404830
  N   -1.11496837774036     -1.31601618740265     -1.82703579632697
  O   -1.60032628997356     -1.96005886424336     -2.70520969890626
  O   0.15080492209871     -1.32115533855329     -1.59226979337106
  O   -1.79397884552697     -0.57289969158645     -1.05105548339700
  N   -0.43945432538702      1.68563307841894     -2.05371342058005
  C   0.15694275774756      1.36761805100332     -3.20480913611886
  C   -0.37727821622800      1.67919679465964     -4.44169804957960
  C   -1.59006969888879      2.34247157345163     -4.48113339918123
  C   -2.21175469329819      2.68101062340192     -3.29096561586909
  C   -1.60710977590205      2.34487748747768     -2.08883282022311
  C   -2.21519219774352      2.69215552373791     -0.77472482380784
  C   -3.26535210801152      3.59360144692081     -0.67288479759486
  C   -3.78374963775296      3.89681184895453      0.57442481081453
  C   -3.22973537109545      3.30313190763620      1.69369862432278
  C   -2.17342954816342      2.42990317735930      1.51420502779563
  N   -1.67825810175224      2.11923110990097      0.31399358041527
  H   1.09134540372139      0.83011397016936     -3.12439359067063
  H   0.14280643300040      1.39253855092823     -5.34326904479834
  H   -2.05390561432221      2.58984164226744     -5.42570308620034
  H   -3.16672614201873      3.18152864594934     -3.30867149711617
  H   -3.66684346365379      4.07306151771243     -1.55135095745969
  H   -4.60096803367018      4.59830701258047      0.66750686551259
  H   -3.58924846858834      3.51901967455872      2.68858184990573
  H   -1.68033059215053      1.97947688256638      2.36417002198665
  C   -1.40316042121376     -2.37551943653520      1.30438516159175
  C   -1.66263649075244     -3.12591660684531      2.61794647282205
  C   -1.40992446897365     -2.08238015055017      3.71912311011284
  C   -1.51437325800862     -0.76351128370403      2.98067366912900
  O   -0.95251866949761     -1.04546664580583      1.67804380307286
  H   -2.30501942015714     -2.27459502085787      0.70317675947652
  H   -0.61687691081260     -2.81661578351832      0.69237866769637
  H   -1.01125881908358     -3.99050988063765      2.72721653165924
  H   -2.68896798580672     -3.48509038900670      2.64484764459880
  H   -0.41186467635992     -2.18949088956283      4.14024444926602
  H   -2.12879367528951     -2.15062733178070      4.53215024085139
  H   -0.92994434674143      0.04081719316031      3.41890181484621
  H   -2.55493011973641     -0.45250013701567      2.84974619944488
  C   4.27323428911723      2.83903355730628     -0.26550087798914
  C   3.18554834582312      1.97863057076546     -0.68760221866789
  N   2.31182071013315      1.29176753950253     -0.96946426665273
  H   5.22217287807528      2.31950024683521     -0.38149057008249
  H   4.11158125312134      3.08141336447095      0.78540224342969
  H   4.27943701515885      3.75199709340971     -0.85654169111478
  I   1.36334885285488      1.75815501152681      2.47335014072293
  C   2.55518218224278     -3.01333375563307     -0.28218872670982
  P   2.33455884046040     -1.56449988878626      0.80616255088837
  C   4.03637081944093     -0.91263308149251      0.91285304753667
  C   2.13054959047448     -2.32792355796594      2.45007776132839
  H   3.35489707683848     -3.66153793553488      0.07692356095197
  H   2.78817536502933     -2.67801877429024     -1.29216643675357
  H   1.62925807115701     -3.58476593579843     -0.33809724596392
  H   4.71690827563749     -1.67272831895062      1.29699987497479
  H   4.05053692443486     -0.04893256561520      1.57755640065543
  H   4.37433944039700     -0.61023530716393     -0.07784919063855
  H   2.96170685068279     -2.99494737901726      2.67993729513519
  H   1.20345020258689     -2.89922614388650      2.47353114558777
  H   2.07492078944035     -1.54289323416949      3.20393599426411
