27
Coordinates from ORCA-job orca E -2111.963619497074
  Eu  -0.01397931067270      0.71544843036556      0.62177840027711
  O   1.97780767282888      1.50025908051415      1.09799545448272
  S   2.77293125215365      0.65784916188063      0.01391512088978
  O   1.53643979298284      0.26116826566874     -0.89249519456049
  O   3.16472248206084     -0.59423665363015      0.72077954787554
  C   -6.83450891545203      0.73379741294823      0.92447079609252
  C   -6.72170191833758      0.03696527391655     -0.27164644404216
  C   -5.47510186850132     -0.36027221879570     -0.72103481398474
  C   -4.34052664333837     -0.07107444187236      0.03636622520274
  C   -4.45921449182435      0.60647429442566      1.24701627006198
  C   -5.70691524007355      1.01872005052923      1.68125539224481
  C   -2.98803348610635     -0.45325018988626     -0.41900590132792
  O   -2.04000036801834     -0.58510511064582      0.34440895098419
  O   -2.77827814643335     -0.65715084391114     -1.70920562888621
  H   -7.80836129617868      1.05457690918778      1.26810877560334
  H   -7.60358392730106     -0.19750836678904     -0.85060471923074
  H   -5.40440948411271     -0.92881676849365     -1.64089678310758
  H   -3.57533849120859      0.82785885885797      1.82892541860752
  H   -5.79694306543888      1.56761623016341      2.60767704345610
  H   -3.54306403009825     -0.38827444218468     -2.23102784074124
  O   0.88940334833981     -1.17291894220599      1.78822398249277
  H   1.86059953474780     -1.09370827247933      1.48138890534169
  H   0.65069981884988     -2.10122746816797      1.77177005630563
  N   -2.03641941542450      2.75839758618439      0.60415796207090
  O   -1.54973077696241      2.30783288260882      1.69451089825276
  O   -1.51836147887481      2.28577521224208     -0.46582918639854
  O   -2.93023154760512      3.55250406956877      0.58209731203739
