4
Coordinates from ORCA-job orca E -3620.264674229058
  Nd  -0.13143701086191     -0.12673335144583     -0.00438705063327
  B   -0.98533744453010     -1.32947485701973     -1.87188503465197
  Cl  -1.00978137127774      2.39261108606706      0.19175521106398
  Br  2.72304582666974     -0.11451287760151      0.24791687422125
