7
Coordinates from ORCA-job orca E -736.145865598680
  Cf  0.00000844038420     -0.00000403013609     -0.00005987506402
  H   -0.00001506509993      0.00002682363617      1.98324936701333
  H   0.00001981076418     -0.00001235989396     -1.98336076630679
  H   -0.00003150272512     -2.00643105038830      0.00001766768913
  H   -0.00000709483273      2.00634840725097      0.00006636869289
  H   -2.00634116551024      0.00001890112474      0.00006079238506
  H   2.00637657701965      0.00004330840646      0.00001644559040
