5
Coordinates from ORCA-job orca E -1810.135606746285
  Sm  0.02206886722657     -2.06603942065955     -0.94878785800718
  Be  0.11238098440310      0.35821524864909      0.34686625799750
  P   0.59732506999512     -2.28952188511883      1.67992830925575
  S   0.99691134880242      0.27507587286366     -1.29312359602117
  S   -1.03419627042721     -0.92476981573438      1.28717688677509
