6
Coordinates from ORCA-job orca E -1564.670187451202
  Cf  0.13673527037077      1.57688041220116      0.81053187352634
  H   0.75905822320598     -0.47190224834324      1.59273378166623
  Na  0.18649337929291      0.36936060213077     -2.31493082297528
  Sr  -1.14367365316065     -1.60585591814242      0.44353183535944
  Sb  1.93007272966263     -0.71566579887035      0.10375518446186
  S   -1.86867594937164      0.84718295102410     -0.63561185203857
