4
Coordinates from ORCA-job orca E -1388.154685471659
  Cm  0.24214326373309      0.02360824225795      0.16756721821110
  Sn  -1.10636112783451     -1.88176619502252     -2.30852525664591
  Cl  -0.67388386931332      2.55585755755654      0.43888510919051
  O   2.13459173341474      0.12419039520803      0.26547292924430
