6
Coordinates from ORCA-job orca E -2379.449622661412
  Md  -0.09248825296851     -0.10470591751187     -0.00216213439691
  I   0.55355739224561     -0.05821303528760      2.89194144942746
  I   -0.24181433449307      0.63063895200705     -2.87464163923257
  I   -1.37614132399023     -2.62125917543430     -0.04972138920557
  I   2.82961166238499     -0.22211795719018      0.52396656999874
  I   -1.67271514317880      2.37565713341689     -0.48937285659117
