36
Coordinates from ORCA-job orca E -2493.585870430695
  Yb  0.11620930138596      0.13993437684696      0.63724069222079
  C   1.95946259395440     -0.84864546196555     -1.35811541766551
  N   1.17327983157141     -0.00200229208356     -1.54228066144424
  C   -2.17133508626645      1.13553705804638      0.28626337592592
  N   -3.25074843106074      1.40491158695341     -0.04596446125974
  C   1.41204800373694      4.88454609054470      0.80693643874339
  P   1.39123706999365      3.28287100340313     -0.00559425858941
  O   1.16000458523815      2.17778160933471      0.99441275312013
  C   0.13033382228745      3.35853871392820     -1.27561555274957
  C   2.96157447182984      3.09302541429272     -0.84942551682093
  H   1.60420013720162      5.68342176495696      0.09175235735986
  H   2.18652694091075      4.88792754377303      1.57243259238254
  H   0.44612279307797      5.04950854542415      1.28233096945791
  H   0.28789132724324      4.22225886577605     -1.92153802712925
  H   -0.85371085972557      3.41444746960474     -0.81007577718160
  H   0.18220352185445      2.44444615247188     -1.86812571738965
  H   3.12332170765190      3.89865904596153     -1.56493638755540
  H   2.94662282533554      2.13541676120666     -1.37047076512974
  H   3.76726376830627      3.08836036118965     -0.11653647986161
  C   -3.79059710476429     -2.07662227658504      0.41138369307723
  P   -2.18014144714954     -2.39247631641240     -0.30156737351338
  O   -1.05074687091341     -1.93746934473905      0.59504193396043
  C   -2.06658830990389     -4.16362038540461     -0.59170351965925
  C   -2.15024235947816     -1.60511874508597     -1.91019665846684
  H   -3.85467756832845     -2.55846130865868      1.38623087530240
  H   -4.57782448486922     -2.46013260889659     -0.23753603415425
  H   -3.90369346693571     -0.99765222179248      0.52390753214420
  H   -2.88591451659224     -4.50901690183911     -1.22093547399415
  H   -2.09995208936434     -4.68696456863873      0.36293639907957
  H   -1.11903379359399     -4.38305347677973     -1.08237297728355
  H   -2.87220735629446     -2.07487579616208     -2.57815241663568
  H   -1.14736999211712     -1.68691340478037     -2.33010441515620
  H   -2.40244377432907     -0.55176401476159     -1.78549728527174
  O   1.61116316295502     -1.68536154780961      1.46722023668745
  H   2.17831116237655     -1.73558067120878      0.67945147743781
  H   0.94515048477559     -2.37136102011104      1.32720385001216
