39
Coordinates from ORCA-job orca E -2087.638264884126
  Gd  0.08745333356642      0.17126246516752      0.07801402444641
  C   0.14292650323573     -2.80352673980327     -3.47598924525840
  C   0.71181060677066     -2.10532907055953     -2.27086932036470
  C   1.92892254963447     -2.52401684115826     -1.74970905535402
  C   2.57027360534603     -1.91122621059604     -0.65804775240940
  O   2.10274586771015     -0.94171411140092     -0.00378945647081
  C   3.91597773555546     -2.41878047722547     -0.21848344238490
  O   0.00899486305568     -1.14302770836534     -1.81018099703133
  H   0.79699272210225     -3.58568855300547     -3.85117748251787
  H   -0.03403031881827     -2.07054928437827     -4.26363141724199
  H   -0.82163748186743     -3.23837725457603     -3.21096255134179
  H   2.42982588390098     -3.34909636716425     -2.23118392266947
  H   4.27321765470523     -3.24297294532806     -0.82958083563727
  H   3.84327249320045     -2.74084375801158      0.82054415174343
  H   4.63088998297617     -1.59703995443675     -0.25865702603222
  O   -1.00801652593359      1.37107580066748     -1.86700106591296
  H   -0.39082317194673      2.11468055485622     -1.93640093437525
  H   -0.77236975275440      0.75796331858166     -2.57402075585820
  C   -3.40552216457015     -1.65193253038235     -1.50566138186806
  C   -3.47513769568372     -0.35172258128122     -0.73477206143379
  O   -2.40499539853471     -0.23660197808049      0.21540479669370
  H   -4.22072973013480     -1.70347703770341     -2.22792446333185
  H   -3.49449511509477     -2.50847375583916     -0.83528133201861
  H   -2.45664255430505     -1.72485327366658     -2.03453042949517
  H   -4.42494902364245     -0.25805088183171     -0.20409913532049
  H   -3.36598033876729      0.50651481654784     -1.39353971378279
  H   -2.38778323552007     -0.98963036374650      0.82758697886959
  Cl  -0.51159192706665     -1.60199732717384      2.01970170783530
  C   1.81848091202067      3.02260160891228     -1.06064070245336
  N   1.39735547220129      2.05228404490883     -0.56159693357824
  O   1.43666590098803      0.77588435088068      2.10866866170266
  H   1.34318977715469     -0.05789387965486      2.59088857416205
  H   2.34004278630132      0.80367121499489      1.77439613522885
  C   -0.63440967085956      3.09346974326382      1.96478096461096
  O   -1.13152764769925      2.00069968316958      1.18070224725742
  H   -0.44097041250464      2.77595649376281      2.98794796724119
  H   -1.34622322829086      3.91777135057602      1.94728126458338
  H   0.29537270784402      3.40504645759366      1.50078967304432
  H   -1.99267596427530      1.70964098148621      1.49122426672381
