6
Coordinates from ORCA-job orca E -767.989300229984
  Gd  0.06497080552381      0.13832917231704      0.03560016626448
  H   0.12616605459039      0.37988481029084      2.05833431837896
  H   0.23109543765856      0.28415377414994     -2.03277279535136
  H   -0.87193807223186     -1.55675738215398      0.03356324273196
  H   1.93225692637684     -0.66052333695793     -0.12017256874430
  H   -1.48254115191773      1.41491296235410      0.02545763672024
