5
Coordinates from ORCA-job orca E -806.491274031767
  Th  0.13843150066857     -0.92768746836886      0.21520494648323
  F   1.73377355002438      0.43044571393818      0.11669938688948
  F   0.87020273766683     -2.81957912377203      0.74721747876075
  F   -0.79734397169270     -1.03967100257510     -1.65822328372416
  F   -1.25057381666708     -0.29054811922220      1.65116147159069
