7
Coordinates from ORCA-job orca E -2227.408989311018
  Pa  0.00006877646675     -0.00009298261398     -0.00011351144735
  I   0.00139295954513     -0.00049381904058      2.89115698756143
  I   -0.00136804070793      0.00044347325852     -2.89130671513820
  I   0.00032573301170     -2.89086439950506      0.00043660655968
  I   -0.00049935759255      2.89073815164006     -0.00050492695074
  I   -2.90223324647606      0.00047498243779     -0.00122828634364
  I   2.90232317575295     -0.00021540617677      0.00154984575882
