5
Coordinates from ORCA-job orca E -4375.948926291905
  Lr  0.02797191534608     -0.96436127058773      0.15373929394896
  Cl  2.04468165506829      0.81262431643228      0.04055406931729
  Sb  1.40380716828947     -3.80586950086486      0.89865477011468
  Se  -0.94640893161157     -0.96562762703225     -2.36119861750081
  Te  -1.83556180709226      0.27619408205258      2.34031048411987
