4
Coordinates from ORCA-job orca E -40.093632423818
  La  0.14519480267875      0.20340720739051      0.29561399572997
  Li  -1.16100523448385     -1.66794012791709     -2.10890170586259
  H   -0.64727778637373      2.16550588967057      0.18560272940350
  H   2.25957821817882      0.12091703085600      0.19108498072913
