39
Coordinates from ORCA-job orca E -2008.993414536076
  Dy  -1.08409948426636      0.15341551150014      0.23877890425566
  C   1.31731934944567      3.46539257294203      5.74789240575894
  C   0.04610810850007      3.73371339476473      5.25565208046067
  C   -0.39764695446135      3.09745295257562      4.10993904136700
  C   0.43800865947701      2.18917347627851      3.46194197664268
  C   1.71381034872720      1.92081787795652      3.95553993329936
  C   2.15163180788158      2.56237973310456      5.10003438250584
  C   -0.03447231058057      1.49895223985420      2.25628692732352
  O   -1.20009775913295      1.74781000375713      1.77588275922578
  O   0.68215484568444      0.62471009457937      1.66272114578584
  H   1.66129836167943      3.96436917693460      6.64362646787579
  H   -0.59528158043467      4.43797660568240      5.76613158842931
  H   -1.38287290875154      3.29278888385136      3.71135675458142
  H   2.34789716028529      1.21531655882533      3.43764932712943
  H   3.13966933967448      2.36192483286011      5.48948207540369
  N   -3.39723473781968     -0.16399609943616     -1.23774849774714
  O   -3.21566737035617     -0.70887060623447     -0.08096122640041
  O   -2.40229509406749      0.54874813162259     -1.63996444923072
  O   -4.38213154549603     -0.31273961605006     -1.87006528786549
  C   -0.11188096020013      2.45304310037620     -1.03301371192999
  O   0.24395054603035      3.40427689783122     -1.49822832025248
  C   -2.90814311353916     -2.23983160188120      3.15321199017803
  C   -2.11708450372632     -2.71114402307114      1.96040109189878
  O   -1.08254244944158     -1.73508593281036      1.59989450670989
  H   -3.67053645272406     -2.97907804073912      3.39679464993914
  H   -3.40925251750460     -1.29646516609172      2.93934389923702
  H   -2.27218861073093     -2.11670117608226      4.03030447792340
  H   -2.73734972825039     -2.80014464695154      1.07414873172540
  H   -1.61563214000702     -3.66048443998135      2.13916555702796
  H   -0.39352206985949     -1.72818892495193      2.27424836804380
  C   -0.33051229238543     -2.02453475223134     -2.44587513859856
  C   1.03231223966924     -1.63590974425527     -1.93239690293690
  O   0.84479516497764     -0.68508151540142     -0.84368037901749
  H   -0.22895652672692     -2.76103161002310     -3.24061625134395
  H   -0.86015315797279     -1.16512901324464     -2.85688237664030
  H   -0.93028205227530     -2.48560888513688     -1.65603012231266
  H   1.62930042219349     -1.15487021507690     -2.70515552789472
  H   1.57404567394747     -2.49511538105566     -1.54059132215537
  H   1.68253429253778     -0.47285065459013     -0.41761952840274
