7
Coordinates from ORCA-job orca E -378.731421656297
  Ac  0.00000514265818     -0.00002006001970     -0.00004733913791
  H   0.00000445456302     -0.00000218571667      2.28828509050085
  H   -0.00001044378851      0.00001396253465     -2.28838067134210
  H   0.00000729172344     -2.28834705414302      0.00003524340850
  H   0.00000401752908      2.28834303274713      0.00003036464142
  H   -2.28838336804763      0.00000278978682      0.00003184146203
  H   2.28838290536243     -0.00000048518921      0.00003547046721
