5
Coordinates from ORCA-job orca E -1009.594554662905
  Lr  0.13933579664489     -0.92790266297131      0.21363533300992
  H   1.73680444329527      0.29233917556131      0.15383876625674
  H   0.94294870354770     -2.69741308834442      0.72693663292623
  H   -0.85612009252380     -1.00421857930535     -1.53159710067886
  H   -1.26847885096406     -0.30984484494022      1.50924636848597
