16
Coordinates from ORCA-job orca E -4003.487756813951
  La  -0.08139070747088      0.99376614660492      0.76505080686178
  F   3.74285030513871     -1.18363223467055     -0.52318713671580
  P   3.10416763915199      0.23166386638598     -0.73729347273752
  F   1.62307706333120     -0.29936483219957     -1.08020600053349
  F   2.72174172966195      0.47697740299694      0.81038151114253
  C   -1.12772390439895     -0.03095508230337      4.75906536832572
  C   -0.15079392549049      0.67518790570873      3.95658029047154
  N   0.60832821249065      1.23649868853334      3.29858673441751
  H   -0.93015300540916      0.12654984996421      5.81665831446022
  H   -1.07397477616704     -1.08650629311705      4.50096738042956
  H   -2.11103323720180      0.34825309051569      4.48505216575018
  O   -2.25871017234357      0.83368362790679      1.84159296167659
  S   -2.27466423129828     -0.61075706555945      1.23376578199207
  O   -0.97097625355777     -1.18339058030531      1.81781207569451
  O   -1.81901734950094     -0.28156762850456     -0.22377152751136
  Br  1.20577261306439      3.03299313804325     -0.80735525372424
