4
Coordinates from ORCA-job orca E -2395.764584911670
  Er  0.14863179377379      0.20911483628170     -0.38079285491528
  Cl  -0.99571599793061     -1.43774009485236     -1.74576579671949
  Cl  -0.98497068439694      2.22546784004285      0.34371976795731
  Cl  2.42854488855376     -0.17495258147217      0.34623888367746
