32
Coordinates from ORCA-job orca E -2096.675488798110
  Tm  -0.63063376963325      0.04972550940907     -1.05134700656155
  N   1.20132902415032     -1.58120683509119     -2.20902520696257
  O   2.00076775818416     -2.29485577514949     -2.69902613522404
  O   1.45534864284365     -0.35771835738500     -1.87679638135111
  O   -0.00693841091695     -1.94536710119600     -1.94492279744937
  C   -1.42085353543399     -3.02173120074558      1.40708074900522
  P   -2.24859646982143     -1.61052002728699      0.61667801799689
  C   -3.46624991618558     -2.37996021122070     -0.49312787807457
  C   -3.25018064178169     -0.86295680562105      1.93636143258306
  H   -2.15307470887196     -3.68144271739349      1.87253040216112
  H   -0.72476965319130     -2.67535838580433      2.16987504471179
  H   -0.86394791618287     -3.58281460507561      0.65741702167778
  H   -4.11263608710590     -3.06142980225906      0.06014142761787
  H   -2.95080323216823     -2.93744089125730     -1.27491865773828
  H   -4.07688361755784     -1.60987549218166     -0.96287676944963
  H   -3.90744418716965     -1.60766682098293      2.38496842040427
  H   -3.85765564610849     -0.05646727798340      1.52785972683962
  H   -2.60467720676296     -0.45140363565780      2.71105098549487
  C   2.67539513164328      2.47579374047285     -0.36922744922273
  C   1.85755344713282      1.62938251384577      0.56942736512420
  O   0.43468752864283      1.63658173838603      0.18212515174932
  H   3.71774084340587      2.45501758462871     -0.05320545466981
  H   2.34758207026592      3.51583673153728     -0.35405974856502
  H   2.62224916931669      2.09330498289000     -1.38691060367711
  H   1.90836653218502      1.96974607978377      1.60128999021080
  H   2.15267043117137      0.58387745838839      0.52747213437922
  H   0.10460084546254      2.54056627354185      0.22990939280483
  C   -2.94603784346076      1.65593487136640     -2.87407930273828
  O   -2.03087877811306      1.01107932516459     -2.01758120702857
  H   -2.41797408017492      2.19321272197728     -3.66196146696393
  H   -3.55083534177249      2.36849188647470     -2.31229765876307
  H   -3.60962038199065      0.92626452442502     -3.33892353832106
