6
Coordinates from ORCA-job orca E -1675.722567391420
  Cm  -0.06176655128376      0.36485720901005     -0.31947185215151
  Mg  0.81934811514417     -0.60455216058767      2.88938808565028
  B   -0.42373577657144     -1.16346316087184     -2.33009851870249
  N   -0.88108440834135     -1.41381351677982     -1.11610013268706
  Cl  2.35929308606081      0.04517999169268      0.84878305740207
  I   -1.81204446500844      2.77179163753661      0.02750936048872
