7
Coordinates from ORCA-job orca E -2470.720586155123
  Bk  0.00064237857344     -0.00826495662603      0.00847198860753
  I   -0.70306578065031      0.33841673826047      2.91201219517698
  I   -0.34259741089688      0.68593614497257     -2.90937838837787
  I   0.68481647491254     -2.91225163478767     -0.37483436643361
  I   0.36439830252550      2.91932318742345     -0.63262597082809
  I   -2.92385435046252     -0.36963182492959      0.62802322784210
  I   2.91967038599822     -0.65353765431321      0.36832131401295
