7
Coordinates from ORCA-job orca E -769.592215266576
  La  -0.57667590118880      0.21808425119061      1.28209055010568
  H   -0.71057832754870     -0.67630117843374      3.16794172444072
  Mg  -0.66954712494869     -1.06707955528705     -2.17983058056723
  B   0.81792256858267     -1.37525949165982     -0.28003401810553
  Sn  1.53156575898740      2.76164565309116      0.36597693541050
  Te  -2.97462774259884     -0.05378937527898     -0.92676467997194
  Sr  2.58195076871496      0.19268969637782     -1.42938993131220
