22
Coordinates from ORCA-job orca E -4029.640037495015
  Er  -0.27376997114414      0.52171144105735      1.35481366754785
  Br  -0.09764363156635     -0.15690393429018      3.89231181106943
  C   -0.14441143282194      2.83714123690511      0.79460583201223
  N   0.28287953859381      3.83788919394872      0.40023197846261
  C   2.12228843882117      0.18719817029590     -0.87831086171890
  C   2.54590471941449      1.57239931684515     -1.32288994100795
  C   3.30550020718393      2.12545110589362     -0.10320220381036
  C   2.83945010067197      1.26270840370389      1.07443548740755
  O   1.83152653730345      0.35614156900109      0.53333396347066
  H   2.92312514424118     -0.54897172016400     -0.96849543733530
  H   1.22029814927986     -0.19523363796252     -1.35153114940626
  H   1.66768234450935      2.18345233962715     -1.52107660268767
  H   3.16093069199166      1.53882699097614     -2.21944381975736
  H   3.05822558279969      3.17094515332118      0.05943816424878
  H   4.38243949087640      2.03506879533907     -0.23061146612888
  H   2.36684821848327      1.83762022951944      1.86954475334715
  H   3.63309815548562      0.64994831436719      1.49855818532632
  C   -2.16751129976881     -1.34259279019449     -0.72871885065895
  O   -1.33313527677544     -0.54810763146021      0.06416592435562
  H   -3.11455949631171     -0.83489087538659     -0.92408134816726
  H   -2.38417101907530     -2.29339798051008     -0.23652403408579
  H   -1.69579519219226     -1.55710369083299     -1.69125405248350
