5
Coordinates from ORCA-job orca E -4067.118665070858
  Tm  -0.25901098237096     -0.73712934818827      1.05164432432583
  Sb  1.00736446699476      0.97165239024650     -0.84848222856630
  Se  0.08495672477578     -3.11071934069133      0.02154147481585
  Sb  1.14988617753799     -1.56851284130622     -1.84943033370269
  F   -1.28870638693759     -0.20233086006065      2.69678676312731
