5
Coordinates from ORCA-job orca E -2198.188513689259
  Lr  0.27036517021769     -0.73747367574871     -0.08557120759493
  I   2.32125948755433      1.14586580196111     -0.01726805500861
  I   0.68700360587887     -3.19353140058251      1.44978424920097
  I   -1.07020775271193     -1.04478375477560     -2.50719306581596
  I   -1.51393051093897     -0.81711697085428      2.23230807921853
