45
Coordinates from ORCA-job orca E -2456.853608830082
  Eu  -0.38570673641485      0.34841921972835     -0.51180221312326
  C   2.58773508775486     -1.17281826505440      0.17299793851414
  C   1.50010736066469     -1.82616112190380      1.04606054159275
  O   1.77999963268108     -2.86082352896475      1.62961640951003
  O   0.36630662644757     -1.21665974055542      1.04988958876023
  N   2.17969381417082      0.14133074168342     -0.32099429550995
  H   2.73100312351800     -1.83741158592414     -0.67903116939678
  H   3.51947296174809     -1.16329964090326      0.74240926501922
  H   2.62930899459671      0.40495580726503     -1.18648939859648
  H   2.33808342574990      0.87262147595680      0.36187182745106
  C   -0.74509888287948      6.59823953779061      2.84807129309846
  C   0.32377767732107      5.74521341260666      3.09025063039426
  C   0.38365596015181      4.51293128295348      2.45715657708341
  C   -0.62617505616553      4.13011101688324      1.58306505530929
  C   -1.69782526555711      4.98197734110551      1.34530352856211
  C   -1.75570193114208      6.21599676631898      1.97533337488151
  C   -0.56094308965111      2.79589408788142      0.89426463661522
  O   0.44958162164220      2.06277359619495      1.08491764584861
  O   -1.51508454716466      2.44684008518814      0.15242661014849
  H   -0.79179947065593      7.56071239596877      3.34178712942238
  H   1.10871785271132      6.04130417501354      3.77430581781677
  H   1.20304981025402      3.82879134802743      2.62860690038259
  H   -2.47250288317534      4.65582713941904      0.66517953818987
  H   -2.58973892037282      6.88016504181150      1.78879151909710
  C   -3.56205181089630     -1.15553309333104     -1.27915908904076
  N   -2.57053522508308     -0.61796157239159     -0.97349573456052
  C   0.28443968379555     -1.75948980514140     -3.23639664711974
  C   -1.03375332532849     -2.36349058048233     -3.68788758377579
  C   -1.30796840252333     -3.43190731024019     -2.61545111937973
  C   -0.42770651157125     -3.00950804085900     -1.42851784126964
  O   0.18717597049156     -1.76076908825622     -1.80807073379582
  H   0.44843889880715     -0.72835153868151     -3.53948353473742
  H   1.13553054636676     -2.38710185749948     -3.53217145020198
  H   -0.98075045666534     -2.77539159462677     -4.69561608345010
  H   -1.80898349055129     -1.59953887442997     -3.65615690923986
  H   -1.02685085342371     -4.42602351567430     -2.96468168650097
  H   -2.35900031303976     -3.44208716615017     -2.33633488973050
  H   0.36681650811698     -3.73123837534895     -1.22314363168424
  H   -0.98574749232029     -2.83549504992335     -0.51353521622344
  O   0.23493605807934      1.25719860031364     -2.38955135087050
  H   -0.12085497217288      1.98078892929434     -2.90187640766631
  F   -3.47894529900672      0.25287540849675      2.59893850415639
  P   -2.06619380357414     -0.32371226029708      2.17370116188419
  F   -2.44893024752955     -1.84418807757834      2.25134689531447
  F   -1.39148262820431     -0.20410572568433      3.59645459682130
