4
Coordinates from ORCA-job orca E -1702.519325095287
  No  0.59884591200278     -1.18848419780070      0.21419263960048
  N   -0.54466090302634      0.36018409944394     -0.81145815539240
  K   -2.11024585120571      2.43498656475485     -0.99637650210199
  F   2.65255084222927     -0.78479646639809      0.15704201789390
