6
Coordinates from ORCA-job orca E -14105.721154465420
  Lu  -0.12318805216886     -0.23167792972598     -0.00331330167443
  Br  0.72706279076943      0.44437683039148      2.47391866529830
  Br  0.04076335647873      0.95261644001420     -2.42922118708470
  Br  -1.34702913688626     -2.44406576875175     -0.08276906676695
  Br  2.52660971576082     -0.55736235174582      0.45126203302800
  Br  -1.82420867395386      1.83611277981788     -0.40986714280022
