6
Coordinates from ORCA-job orca E -1583.184494885759
  Th  0.65819219677280      0.42674208990962      0.21550454872815
  H   -0.02928690317755      0.70891112826702      2.26767440962329
  Al  -1.56081210206140      0.25971270882487     -1.88976468688657
  S   -0.81901263909449     -1.62917607237378     -0.88642050265726
  Cl  2.69238294743486     -1.22239804445189      0.96003830171784
  O   -0.94145349987423      1.45620818982416     -0.66702207052545
