24
Coordinates from ORCA-job orca E -1900.190247182002
  Tm  -0.27730811374623      0.46134799039294     -0.44814190867665
  N   -0.33982531608005      2.75314281825447      0.28367566697759
  C   0.25863182424280      2.81098197576603      1.65777922762301
  C   -0.29319449014108      1.67817012464008      2.50011066232911
  N   0.00524877124706      0.34316984208323      1.89493679390252
  C   1.34057935566761     -0.23402352022679      2.25469098804193
  C   2.31231439326624     -0.21754374038138      1.08594370302561
  N   1.69252885792459     -0.87946818489130     -0.10553271423826
  H   0.09725064362558      3.47104545804437     -0.29216471240635
  H   -1.31481297970629      3.04953366875564      0.34703195778893
  H   0.04081730599036      3.76527635094591      2.13490073149570
  H   1.34223133405453      2.74122187020326      1.55644416595998
  H   -1.37881885672544      1.76591032024281      2.57100235169342
  H   0.10240789817626      1.73514359365312      3.51429826041246
  H   -0.70454253240326     -0.29283153575640      2.24811936917852
  H   1.18502798629350     -1.26234919740454      2.58211593250332
  H   1.77224470571746      0.30556129035955      3.09736445625597
  H   3.23994316268718     -0.71061959000769      1.37371548850895
  H   2.57514046300367      0.80490087316496      0.80034925191289
  H   1.49350728086719     -1.85438508733608      0.11883382881032
  H   2.38471291177445     -0.93373933775913     -0.85127385250449
  S   -4.61256033806247     -1.56289187581392     -0.52753064492046
  C   -3.22732556218037     -0.89393169575640     -0.49069277335954
  N   -2.12639870549324     -0.36452241117284     -0.45907623031460
