34
Coordinates from ORCA-job orca E -2920.622821316166
  Lu  -1.00455249977940     -0.37986841800107      0.28930458398640
  C   1.89829740453964     -0.64750234177265      1.78064472255026
  C   2.16362803365567     -0.59299200251597      0.26769021386676
  O   3.32032201385885     -0.63071220964809     -0.13124428211211
  O   1.11278191446111     -0.53585404383985     -0.47134985657795
  N   0.57805962467832     -0.11523698967589      2.12362479875911
  H   2.71894854643835     -0.14714969224092      2.29538705846545
  H   1.92362118860907     -1.70243036330122      2.05246956472562
  H   0.59481718195826      0.87891916888948      2.31228325021787
  H   0.14167065955995     -0.58817156872862      2.90422374708385
  N   -1.07769901975708      1.90259655668591      0.55468323420877
  N   -1.36641240236803      2.75073738004284     -0.22336430635058
  N   -1.62171669644265      3.58127784849501     -0.97448015493290
  O   -0.34335003985421     -2.65709550053159      0.80720131593336
  H   -1.22273568459603     -3.02703843701165      1.15545647542612
  H   -0.11742051939276     -3.17027578297622      0.02874076125474
  C   0.75003577430147     -0.57490203627633     -3.69614537544888
  P   -0.19240153686320      0.74278851591085     -2.92030980789738
  O   -1.15231879969677      0.20723408553374     -1.89401564168455
  C   -1.12149433864557      1.58243099584822     -4.21154932383706
  C   1.01269077845835      1.93995086287497     -2.34723785346852
  H   1.37227737988321     -0.19131768063229     -4.50447280644403
  H   0.06276517052822     -1.32586279090603     -4.08390414075798
  H   1.37675480123262     -1.01409137571616     -2.91990259173856
  H   -0.46505936259487      1.95716424465150     -4.99640233999807
  H   -1.64856862676121      2.41433664681254     -3.74353382358597
  H   -1.84992884376348      0.89304248916945     -4.63562228127442
  H   0.49048290788141      2.79063927140074     -1.91013618023160
  H   1.60516201656074      2.27834037557052     -3.19892731389610
  H   1.65858798225902      1.46254532241287     -1.61435995249684
  O   -2.24291474429194     -0.85996307542644      2.08202231534090
  S   -3.25885642038681     -1.80548283121924      1.36478825709743
  O   -2.88263701497899     -1.47154983186316     -0.11454921130495
  O   -2.74443682869124     -3.19990679201528      1.60738694512201
