6
Coordinates from ORCA-job orca E -2005.566647909698
  Pr  0.48086923572418      0.77668714233278     -0.80923105578408
  I   -0.98142138213857     -1.46372833513143      3.09229267107138
  I   -0.53450250838320     -0.98432673973211     -2.95294434763867
  I   -1.03430486917297     -1.74290514263229      0.43164642300705
  I   3.24299177015168      0.48638323095666      0.02452507285396
  I   -1.17362224618110      2.92788984420637      0.21372123649037
