38
Coordinates from ORCA-job orca E -1926.067653175819
  Pr  -0.00662669200903      0.54960389563810      0.41854413591057
  N   -2.44725014920953      0.01203972287671      0.94279283173048
  C   -3.40986527959112      1.00242264860972      0.35834373468255
  C   -2.85349698994555      1.55102084775180     -0.93555858873672
  N   -1.57350904199805      2.27007640731315     -0.66333540641922
  C   -1.00154621953296      2.89212023959611     -1.89757319855516
  C   -0.01863071575530      1.95285285059026     -2.55775671459341
  N   1.08416708872832      1.65200852486795     -1.58849984598429
  H   -2.60912113911793     -0.88541779053902      0.48525196361101
  H   -2.71186213336105     -0.15197826690360      1.91303443578259
  H   -3.55217677443288      1.80410642834696      1.08401175576273
  H   -4.38188627125137      0.54233411882541      0.19000261902642
  H   -3.57662693619704      2.22416534696917     -1.39835010924620
  H   -2.65922106880528      0.74520321435234     -1.64829715955139
  H   -1.81559607741588      3.03683409784196     -0.03751221215138
  H   -0.50052036699156      3.81754126959799     -1.61052545772039
  H   -1.79612289597385      3.16110162586415     -2.59401754166493
  H   0.37596791182204      2.39767964487812     -3.47030812596409
  H   -0.48891703838214      1.00774345286239     -2.83436448752192
  H   1.62190720402212      2.50724740335157     -1.45012819531283
  H   1.73387878814981      1.01065216529723     -2.04135534812467
  N   1.99449997161477     -0.94535848793659      1.95625076804792
  N   2.66337746479441     -0.26027695809500      2.79814006098536
  N   3.20201315777770      0.39172768783501      3.51299539874291
  C   3.30023892579438     -2.87551664221992      0.30900165613974
  P   2.50383414373747     -2.61596782899655      1.87502359245169
  C   1.02943609921022     -3.59405791235367      2.02862179985408
  C   3.62475381448054     -2.92479843131642      3.22261247159825
  H   3.60710879806405     -3.92345023402626      0.25772082404483
  H   4.18768451875475     -2.24843430263240      0.22517634354596
  H   2.60977031022431     -2.67331067547692     -0.50843287118659
  H   1.31789110765444     -4.64638842013878      1.96568205180849
  H   0.34235072875182     -3.37826558422218      1.21167168170053
  H   0.55521449700656     -3.41946768176521      2.99402700818184
  H   3.89144662037443     -3.98435341663088      3.18004379982012
  H   3.15393973052441     -2.73270290897364      4.18732754404850
  H   4.54323455069046     -2.34536124622946      3.12174984314677
  Cl  -0.00133964220659     -1.49437480480949     -0.97341105789026
