35
Coordinates from ORCA-job orca E -1687.357473909722
  Gd  -0.55355164769521      0.76601698548957      1.26340614631778
  C   3.55155800783023      0.88499794451922     -1.15401132587649
  P   2.58867737551249     -0.35660527836693     -0.31341229257809
  O   1.26923250104517      0.26903798483300      0.20839538311055
  C   3.54039698894346     -1.00957567800452      1.04517662336892
  C   2.22603688117688     -1.68054054496755     -1.45105916318002
  H   4.47870401627551      0.44714880903216     -1.52447878992693
  H   3.79540436849151      1.69368869425006     -0.46611439251586
  H   2.98897224803554      1.28393913418397     -1.99711674662330
  H   4.46729975492306     -1.44566947268045      0.67173148920369
  H   2.96941460146322     -1.78155813620319      1.55996849282155
  H   3.78651548233268     -0.21198644762343      1.74549924996472
  H   3.15498475989156     -2.11512745455909     -1.82104255166221
  H   1.65687416724760     -1.29799845194790     -2.29743848745390
  H   1.65192126336140     -2.45748002826940     -0.94717392390110
  C   0.44152404275779     -2.52654900891020      3.34784285144618
  C   -0.83425445822978     -1.73196598760382      3.50055268656152
  O   -0.84590165311691     -0.60449196062491      2.61400620075072
  H   0.43407295320181     -3.38074857313061      4.02336997326279
  H   1.31013407232962     -1.91413207960581      3.59336800710770
  H   0.53960376460338     -2.90741845924578      2.32983365960768
  H   -0.94310740166015     -1.35529852647149      4.51705439260932
  H   -1.70746918585169     -2.34250644457541      3.27281765770674
  C   -3.64561190259640     -0.13263634011031     -2.03793073612395
  C   -3.11269719342607      0.95342281667492     -1.14359037580682
  O   -2.52313229219087      0.37622444764370      0.08637011576920
  H   -4.07123871555565      0.31931191648436     -2.93301518335650
  H   -4.44445909889981     -0.69064271167219     -1.54780818327744
  H   -2.86061064280029     -0.82215491726623     -2.34332198150560
  H   -3.88517192058419      1.65211677759709     -0.83071366893083
  H   -2.30008300440816      1.50758361494613     -1.61044428945433
  H   -3.14485303857579     -0.26903726892790      0.44642067077227
  O   -0.49740753452751      2.57873446020423      2.83227044459070
  H   -0.67395253770703      2.40422821473842      3.76609704121492
  H   -0.33022502159752      3.52667197017039      2.76289100598626
