4
Coordinates from ORCA-job orca E -1053.902259354415
  Am  0.08109619416265     -1.15928745328866      1.78277704865218
  Si  -0.32431420020064      0.52863884136513     -0.48690847284124
  Li  -1.57006020232827      2.11620892918080     -1.94120967049658
  Na  2.41605096016213     -0.65399800041081     -0.85300169525582
