30
Coordinates from ORCA-job orca E -2397.882881423804
  Tm  0.24409427971811      0.88414149304816     -0.57706954219027
  F   0.74002356138311      2.85076013675622     -0.63604293090262
  N   0.12614988886173      0.30287308054799     -3.00717949969005
  H   0.62238321802502      0.92397183812921     -3.63312492325819
  H   -0.85267501474684      0.28928897391712     -3.26304730804755
  H   0.52474656681224     -0.62890151707957     -3.11346683388645
  C   1.08548907530205     -0.70939723833330      4.25302150393363
  C   0.49546630886266     -1.55276614165049      3.40408822026660
  N   0.35084092270402     -1.13482221868053      2.06448747460061
  C   0.21097614917117      0.30950327521651      1.84802267842602
  C   1.02119274126057      1.04183316648475      2.81196479780823
  N   1.52917772035094      0.57591847491441      3.90537559320486
  H   1.21774778799184     -0.98471929601635      5.29133316868805
  H   0.16107240700259     -2.54696631395552      3.66097172113224
  H   -0.84280956556890      0.63190137215827      1.92831786289811
  H   1.21132815048094      2.09643207526642      2.60541519310000
  C   -3.01566754023372     -1.15120446136552      0.12731148448934
  C   -3.06354810245455      0.20484125445871     -0.56782861186395
  O   -1.80038519496508      0.73248365024567     -0.74710288333543
  H   -4.01686656997823     -1.56988184771053      0.26011203585473
  H   -2.54676888663043     -1.05525781016217      1.10845296272517
  H   -2.41759895031773     -1.85185774868861     -0.45806563293086
  H   -3.68991328541780      0.88896446036704      0.02598046131210
  H   -3.58066483950879      0.08774219856772     -1.53541089210494
  C   0.61706850614385     -2.03548893721711      1.08953529475945
  O   0.85968378351516     -3.20993881680629      1.26789675653142
  O   0.58136882529278     -1.49570921515014     -0.17493135259623
  S   2.17963133253905     -1.60012239242658     -1.05899765761476
  O   1.75529484428980     -2.12914917771165     -2.34695486349937
  O   2.33406188011455     -0.11307231712365     -1.11706427780996
