4
Coordinates from ORCA-job orca E -1250.136561389539
  Tm  0.37359305628477      0.60152881114133     -0.50296473024009
  Be  -1.04461468161398     -1.61560356063128     -1.81018752827888
  O   -0.79369183014940      1.98224390193051      0.47283130657767
  O   2.06120345547861     -0.14627915244056      0.40372095194131
