6
Coordinates from ORCA-job orca E -662.495887023862
  Cm  -1.09952831817559      0.74946863987357      0.84542644643178
  Li  1.50522418994772     -0.80123259610627      0.90917075589004
  Li  -0.14490197347392     -0.00368180650665     -1.93230317911142
  Li  -0.86081455843056     -2.21089173170609     -0.12697635907462
  H   0.95784267059650      0.80975159839021      1.30197766116978
  H   -0.35781201046415      1.45658589605524     -0.99728532530557
