5
Coordinates from ORCA-job orca E -1256.900201456670
  U   -0.21095549215603     -0.66601469778343     -0.80521153176160
  S   0.71156613593830      1.09546547004887      0.76861474519330
  Te  0.18236630354416     -2.58214508449367      1.36655651724946
  F   -0.78992685416873     -2.00264811901302     -2.15069331965739
  Be  0.80143990684228     -0.49169756875873      1.89279358897625
