37
Coordinates from ORCA-job orca E -2596.890461214291
  Yb  -0.12663540077325      1.56332249002459      0.56965423445337
  C   4.97095236881909     -1.01250090280252     -0.47323633964482
  O   3.98787757906863     -0.33186045019364      0.30895179342248
  P   2.43079943497310     -0.44129277646732     -0.14628567102085
  O   2.14904726057928      0.97139513314940     -0.89489759307649
  C   2.92154933232153      2.16712903660087     -0.60237780968263
  O   1.75312556717902      0.03595865603022      1.27363080172153
  C   1.62489575022436     -0.91150665500546      2.34812547407056
  H   5.75242719595811     -1.35106787297226      0.20137004558293
  H   5.39912914232502     -0.33332695820547     -1.20965768542257
  H   4.54117491797439     -1.87372614839349     -0.98852248276939
  H   3.82325127769224      2.15836304917137     -1.21062254875923
  H   3.18335941840183      2.20940678690970      0.45232589556718
  H   2.28412223824298      3.01156150354379     -0.84321322305518
  H   0.74310048020030     -0.61934153296159      2.91169181890024
  H   2.52214186802388     -0.88023665237193      2.96255256654688
  H   1.48946063603252     -1.91956912874407      1.94977033554013
  C   -3.78961334253528      0.06274307346266      0.64028892619135
  P   -2.53680409347361     -0.64323636405396     -0.42762563948122
  O   -1.51798603865416      0.36611337082388     -0.89085403676992
  C   -1.80394920423150     -2.00023625739374      0.48817647342298
  C   -3.38802549171310     -1.36454666991115     -1.83906333110737
  H   -4.27315474321161      0.89533928124237      0.13046419618103
  H   -3.27230785811863      0.41711331601151      1.53397791215737
  H   -4.53813659375221     -0.68224094573904      0.90960787049315
  H   -2.54759286179945     -2.75946357326939      0.72956999251240
  H   -1.39822688496729     -1.56563676155507      1.40357419419483
  H   -1.00691531914375     -2.44676796230952     -0.10643276909646
  H   -4.13061981347478     -2.09497329146512     -1.52007708659487
  H   -2.65762019013504     -1.84893546447162     -2.48561970405947
  H   -3.87879722902031     -0.57128447383354     -2.40110030213871
  F   -1.14467875849151      0.50281046850908      2.16707925494154
  C   0.49465057624597      4.99498243575862      0.40559355919772
  O   0.29389112913362      3.63356872151407      0.44596397021019
  H   1.47330547561388      5.26312049956078     -0.03260111342431
  H   0.47136017167986      5.45737921055253      1.40444883948785
  H   -0.26285799719417      5.51784380925437     -0.19853081869226
