7
Coordinates from ORCA-job orca E -16459.333258146053
  Er  0.00002790045969      0.00002008327218     -0.00002923099816
  Br  0.34729044386807     -0.67433923510561      2.64747212725818
  Br  0.67446866324924     -0.34747341745897     -2.64746197447632
  Br  -0.34727062912741     -2.64740623275055      0.67458666168278
  Br  -0.67450805992564      2.64742971135302      0.34752855510838
  Br  -2.64743504829035      0.67431554736702     -0.34751996801840
  Br  2.64743672976640      0.34744354332292     -0.67458617055647
