7
Coordinates from ORCA-job orca E -16052.526942962826
  Pm  0.09085197293643     -0.29565791802166     -0.17392641676173
  Br  0.28644637426633      0.66085619256741      2.56863642778965
  Br  1.62569778508889      0.50027710159378     -2.43836666966678
  Br  -0.90065809044505     -2.70255732324956     -0.66296825483130
  Br  -1.68234748696080      1.94062979176415     -0.74131004757516
  Br  -2.35454836524251      0.41163061083394      1.55422148368392
  Br  2.93456781035671     -0.51518845548806     -0.10629652263862
