5
Coordinates from ORCA-job orca E -1882.082644658011
  Cf  0.31887126846155     -1.62015623412197      0.47267406093517
  Al  -0.29147214110543      1.27252024302673     -0.50615921358271
  I   0.91146580381087     -4.69251854346400      0.89659313491936
  P   0.55273878127485     -0.32031261413627     -1.84615793281554
  Te  -0.79711371244186      0.71342714869552      2.05510995054372
