5
Coordinates from ORCA-job orca E -3494.656900418512
  Cm  -0.87793339425072     -2.06983205710091     -0.07499525625737
  Na  1.39654289273466      0.20992425017359     -0.24430548024655
  B   0.94789752181078     -1.80199244208054      1.35759588708027
  Se  -0.24799928073410     -0.69262634734505     -2.25762646392814
  Te  -0.52401773956062     -0.29251340364707      2.29139131335179
