4
Coordinates from ORCA-job orca E -3732.488641648598
  Pr  1.28214228096278     -1.58645625213146     -0.47896679279702
  Sn  -1.41917516408800     -0.54977694309048     -0.64756283092973
  K   -0.09858210614312      2.46043803504814     -1.29574392262388
  Se  0.83210498926832      0.49768516017378      0.98567354635063
