10
Coordinates from ORCA-job orca E -3813.198493887041
  Ho  -0.53707125454034      1.08729416369143      0.77245745598192
  C   2.77561593480807      1.05189943552752     -0.14865636474594
  O   1.46512191450075      1.08222401703980      0.26405858040490
  H   3.00383768771889      0.15513378653884     -0.74565883546543
  H   3.47748452858150      1.05384494211993      0.69953974478075
  H   3.03177900051594      1.92119780970559     -0.77286885168144
  O   -1.53535417358842     -0.41472647236584     -0.22305782275931
  H   -1.95007605607170     -1.16250678808147     -0.63471679499563
  F   -0.69297721484128      0.71772285805926      2.78762630789872
  Br  -1.60474817074189      3.57436521939856      0.18689367015259
