4
Coordinates from ORCA-job orca E -1021.669184727328
  Ac  -0.06322905612034      0.43145702700024     -0.30159668216583
  Li  -1.44953494580004     -2.25727755255110     -2.38838196124360
  P   -0.90126902272858      2.67245874442859      0.68068818638813
  I   3.01052302464896     -0.02474821887773      0.57269045702130
