7
Coordinates from ORCA-job orca E -2262.913203059256
  U   0.00000101707445     -0.00000047727202     -0.00000072263937
  I   0.00000739108563     -0.00000633388416      2.82004137546614
  I   0.00000014672917     -0.00000059379814     -2.82004675519727
  I   -0.00000093718558     -2.82004561113250     -0.00000504860442
  I   -0.00000043734087      2.82004386902097      0.00000309874147
  I   -2.82004362936938     -0.00000067640878      0.00000234775319
  I   2.82004644900658     -0.00000017652537     -0.00000429551975
