31
Coordinates from ORCA-job orca E -1565.176349268399
  Ac         -0.20958894323096      0.50688684722557      0.04426277696316
  C           2.92849132868950     -1.12041703055807     -0.76609769713966
  C           1.83329845895296     -2.20388445590804     -0.66300314193898
  O           2.20582167544937     -3.38049883751306     -0.57183815320096
  O           0.61933841146616     -1.78664489729650     -0.63277056100131
  N           2.38287946392549      0.22233714942376     -0.99244005496383
  H           3.65909977138524     -1.44756457012966     -1.52095878261270
  H           3.45297172912843     -1.12483496319841      0.19811917791901
  H           2.18347405389520      0.39638575222809     -1.97228908053604
  H           2.99161456453973      0.95683324105081     -0.64631298671761
  C           1.54424684980227      2.27684474123629      1.32397382432904
  N           2.54603213784771      2.80973446733049      1.60212070660611
  C           0.70832194969891     -3.64359460728741      2.40460633669825
  P          -0.63374021381668     -2.42230189646743      2.38536998050931
  O          -0.14052326260684     -0.99816200949941      2.20256891190947
  C          -1.49155891932856     -2.58585587200617      3.99019886954809
  C          -1.81748413913333     -2.98082480815995      1.13105338079156
  H           0.32113738877150     -4.63681723585973      2.65811553153176
  H           1.45691132122628     -3.34483395769773      3.14556071925981
  H           1.17599075938731     -3.68040731730192      1.41055467142194
  H          -1.82616461972440     -3.61376209192020      4.16371943710095
  H          -2.35689174837763     -1.91562449625219      3.99593248159700
  H          -0.81013274543411     -2.28381095841249      4.79160859181350
  H          -2.26978217752931     -3.93386552442327      1.42639119351369
  H          -1.27351922495303     -3.09513007713605      0.18706529121472
  H          -2.58125440071970     -2.20548490169950      0.99748164252508
  O          -2.16187769828894      2.55893275192705     -0.56648764548573
  H          -2.71963997887497      1.77483573554917     -0.40315819315312
  H          -1.77313740082603      2.39194948304450     -1.44401517143877
  F          -2.50244598192873     -0.01305383476983      0.24698202030625
  F          -0.31474858529891      1.25311448958669     -2.14545265297891
