5
Coordinates from ORCA-job orca E -852.521605463935
  Fm  -1.13420252746442     -0.12238325890874     -0.68985600754342
  Li  1.40759940191323     -0.13345218851745      1.42984557029193
  Li  1.14237074972309     -2.51249511331327     -0.30336769907107
  H   -0.50657065391957     -2.23202308500140     -0.61633933235609
  H   -0.21470697025233      0.35331364574088      1.25177746867862
