34
Coordinates from ORCA-job orca E -1519.823341541868
  Dy  -0.62321582876013      0.86479186018852      0.63525345034033
  C   2.57970229018543      0.95065521811861      1.10555003743743
  C   3.82314666928330      0.54246223751219      0.35089272935702
  C   3.61765294332288      1.19329532181673     -1.01617259292819
  C   2.15334711760575      0.93086536060382     -1.29474542888255
  O   1.50816418302562      0.96608189964330      0.04959379173675
  H   2.63928015852114      1.96132685498735      1.50339799335460
  H   2.26339473742240      0.25733963565073      1.88227710947402
  H   3.88619653871068     -0.54209658693343      0.26468462311414
  H   4.71904464940748      0.89677098611588      0.85497616456041
  H   4.24814296871515      0.76114305828225     -1.78921145311254
  H   3.81552849673709      2.26364877589397     -0.97137334012273
  H   1.98132505545376     -0.06329067469842     -1.70435482522679
  H   1.66866611291148      1.68639751782469     -1.90879092901084
  C   -0.39772025971609     -2.18380239955424      0.72125181525845
  C   -1.52943563440845     -2.14424077257937     -0.27255368814240
  O   -1.82571013072544     -0.71233272057079     -0.52957685556136
  H   -0.11587525882362     -3.21653797544082      0.92151931085896
  H   -0.68044159707993     -1.76343932555508      1.69306277682891
  H   0.50845766260526     -1.70466703818586      0.32631766559198
  H   -2.43459896110231     -2.60015474179654      0.11922864145346
  H   -1.26275297973309     -2.59579813044165     -1.22425160702309
  H   -2.54527015587559     -0.63940178937070     -1.16882479598712
  C   -0.48921912374312      0.64915481932711      2.89721207103266
  N   -0.35937660473234      0.51145339660974      4.03741928732148
  C   -3.22351640291841      2.32225867448608      1.21899025448890
  C   -2.44839538145898      3.54093993421911      0.78756116731347
  O   -1.13616815514167      3.05950875405072      0.29169242195646
  H   -4.21936300068163      2.61266552080921      1.55072618771018
  H   -2.76765785277969      1.82283410564162      2.08300246787923
  H   -3.38568110873764      1.62712794920768      0.38491505761918
  H   -2.25846731698919      4.21729423328909      1.61665758389760
  H   -2.93103052585613      4.06988933055812     -0.02947353149923
  H   -0.59315330464398      3.80675671029020      0.01174643891117
