50
Coordinates from ORCA-job orca E -2703.076402667847
  Tm  -0.99133139544007      0.52314285663682     -0.56318530253616
  C   0.93657189755623      3.19977226062958      5.49509018383762
  C   0.68123127256760      1.84027008559909      5.37061141108599
  C   0.15405399081420      1.33939207295609      4.19025054408545
  C   -0.11392510508099      2.19928074787074      3.13273437569746
  C   0.14253287515492      3.55947943088418      3.25560951703314
  C   0.66521136247131      4.05990330149119      4.43847798069223
  C   -0.62399696996633      1.65201813112402      1.83685190426115
  O   -0.73764881605054      2.41763362617740      0.84061548875072
  O   -0.88640339279001      0.41826215224963      1.74368509621351
  H   1.35087964914031      3.58953354105974      6.41631176902047
  H   0.89988292613847      1.17037581082230      6.19183611473780
  H   -0.04270984049207      0.28419655939818      4.06145793819485
  H   -0.06556958026579      4.20337956762331      2.41210738358045
  H   0.86610825715128      5.11891041751578      4.53609039819989
  N   -2.78307633495642      2.21646443971427     -1.91478591377438
  O   -3.54383478352141      2.94163087624862     -2.50402335385898
  O   -1.53313085436679      2.22552692620482     -2.13454153991822
  O   -3.18334278503510      1.38414288109774     -1.03965414168027
  C   -0.26767261388417     -5.53223953485908     -2.83394489377832
  C   0.51100154886160     -4.43539042552660     -2.48171170564460
  C   -0.08670945829802     -3.22933401436616     -2.15599529014107
  C   -1.47374730937634     -3.11148364699701     -2.18058722547075
  C   -2.25142875486161     -4.20448863955766     -2.53171890599442
  C   -1.64835963302515     -5.41399296887262     -2.85825291945129
  C   -2.09535176018227     -1.78938657613852     -1.76360619501143
  O   -1.90178434181470     -1.45740900982295     -0.49581876926248
  O   -3.43977380374564     -1.75310549484821     -2.16200123624314
  H   0.20244888711555     -6.47410647685679     -3.08825229490781
  H   1.59024305263389     -4.51315501424756     -2.45857764743876
  H   0.53431130999756     -2.38231142301862     -1.89036257314611
  H   -3.32720271490545     -4.10364878106913     -2.54523098148965
  H   -2.26197311809389     -6.26388344934942     -3.13035309431157
  H   -3.84318993661371     -1.09319687615889     -1.58488956712796
  O   -1.40216616320728     -0.70538434429302     -2.54620280355443
  H   -1.88176451493429     -0.54828530946827     -3.36232327849519
  C   4.60930914605012      1.17340703321922      2.68114684080141
  C   4.97435273549653      0.01089571737384      2.01277614752587
  C   4.21207640703849     -0.44625469206732      0.94890280628441
  C   3.08050068283671      0.25336651037967      0.54542004868502
  C   2.72690507773657      1.42315808207478      1.20755454143393
  C   3.48599095082027      1.88064279177948      2.27589431192619
  C   2.24217960955762     -0.29547555526426     -0.59079897231498
  O   2.64283683595653     -1.24855423937192     -1.23754737527739
  O   1.11543078314397      0.31270811999413     -0.77703584476974
  H   5.19855730473214      1.52603829124810      3.51854510893205
  H   5.85067776491870     -0.54190327743780      2.32734836252991
  H   4.46939550895338     -1.35120183330909      0.41565294162305
  H   1.85575111582215      1.97208500064785      0.87745721699732
  H   3.19025302824151      2.78277435088037      2.79727339346868
