5
Coordinates from ORCA-job orca E -3836.501483764791
  Sm  -0.71663144541804     -1.34263872842192      0.55342633834956
  Al  1.90306206483490     -0.69805251282601     -0.80287879698159
  As  1.98618596766210     -2.00805866543648      1.01552908735596
  Sb  0.02012327513464      0.46269912320004     -2.01861547592273
  Cl  -2.49824986221359     -1.06098921651562      2.32459884719879
