6
Coordinates from ORCA-job orca E -950.993205185768
  No  0.20874666669035      0.38581596283359      0.01482384601986
  H   0.20759485710652      0.37995420559008      2.04253002866286
  H   0.19924247461946      0.36458685410015     -2.01342775211436
  H   -1.01654070682690     -1.87287293970027     -0.06789012794111
  H   1.95232795062337     -0.65037491399810      0.01212441482560
  H   -1.55136124221280      1.39289083117454      0.01184959054715
