4
Coordinates from ORCA-job orca E -1856.557337033563
  U   -0.07005081774307     -0.10980385561559      0.18933981613753
  Cl  -0.88814735142587     -1.26888458257084     -1.88593957368866
  Cl  -0.88810254746321      2.26616154508669      0.12389679405063
  Cl  2.44279071663215     -0.06558310690026      0.13610296350050
