5
Coordinates from ORCA-job orca E -3230.402415845703
  Pa  -1.18334629655264     -1.93501648112374      0.26551252270484
  Sr  1.62053686161556      0.37778953596614      0.12053385077959
  Ge  1.48255921860577     -2.78898737095735      0.81910908859461
  P   -0.39281705526898     -0.51979038304713     -1.67706555418155
  P   -0.83244272839972      0.21896469916209      1.54397009210251
