30
Coordinates from ORCA-job orca E -1825.571712993581
  Yb  0.08668038481149      0.38562714138484     -0.11813411861626
  N   0.60034596097545      0.16362289609749      2.27226311535906
  C   -0.41672389168148      0.07909094012090      3.13243357201340
  C   -0.24780317777668     -0.27826404477958      4.45857104241361
  C   1.02921512028081     -0.58024498106026      4.89657008185178
  C   2.08667585032007     -0.51279032553890      4.00258974464616
  C   1.83897533621784     -0.12912934087502      2.69306054619823
  C   2.92522575553455     -0.05957150622259      1.67097307294690
  C   4.26269389451569      0.01620105235377      2.03565035005589
  C   5.23627093372867      0.04151697763456      1.05140643342092
  C   4.85100718294401     -0.00725762095280     -0.27694252220441
  C   3.49860575988483     -0.06127265410491     -0.55792771045296
  N   2.54923208862892     -0.08275909227154      0.38093797448927
  H   -1.39750025383647      0.28943662500458      2.72418523477548
  H   -1.10007367626576     -0.33139409140628      5.11910740057538
  H   1.20371837345103     -0.88099341706722      5.92012607595006
  H   3.08122185658676     -0.78257799987847      4.32239109894115
  H   4.54536547236266      0.07075493754250      3.07546772081652
  H   6.28130121222500      0.10087454851025      1.32123497649647
  H   5.57374736663259      0.00254481414270     -1.07881814667366
  H   3.16107030910289     -0.09503626033032     -1.58741817144672
  N   -0.81665703545160      2.64848901755369     -0.79962210111509
  H   -0.68770476952084      2.99730930389161     -1.74349892679490
  H   -0.66931838368821      3.44492338895356     -0.18859725731612
  H   -1.80105067582829      2.40334897189413     -0.71966337651356
  C   -3.01362028841297     -1.05312450195791      0.26735729683041
  O   -1.80524074780129     -0.38736004973065      0.07504320955693
  H   -3.86380075510978     -0.46412540998089     -0.09498230991843
  H   -3.19657168412324     -1.26392289221863      1.32922658497763
  H   -3.03758751870672     -2.01341642670861     -0.25829089126330
