6
Coordinates from ORCA-job orca E -2984.120628909384
  Bk  -0.18994722165751      0.01583339042453     -0.17126566106098
  Cl  0.72052837159798      0.42556739275121      2.26511729612983
  Cl  0.39759813592846      0.45235317184804     -2.48317544837582
  Cl  -1.36251457854441     -2.09232614771504     -0.16249826492139
  Cl  2.31971556106711     -0.52544293632393      0.41994530512032
  Cl  -1.88537026839162      1.72401512901520      0.13188677310805
