4
Coordinates from ORCA-job orca E -894.451963055964
  Am  -0.03839537683989     -0.05956902799789      0.10891699310304
  F   -0.68018147593960     -0.98083972465802     -1.59810770395071
  F   -0.68809000585359      1.87593096750509      0.02339647271633
  F   2.00315685863308     -0.01363221484917      0.02919423813135
