6
Coordinates from ORCA-job orca E -4067.147808775718
  Lu  -0.06486046396347     -0.11816035206194     -0.19958335279643
  Ge  0.96128291282200      0.82531595492071      2.22062966028853
  N   0.73061936956473      1.35745706875101     -2.21719823329038
  Sb  -1.51029017536374     -2.93459787298175     -0.02638746721410
  Cl  2.18032660843944     -0.60800309494715      0.40736876081206
  H   -2.29706825149895      1.47798829631912     -0.18481936779968
