6
Coordinates from ORCA-job orca E -726.854757189638
  Eu  -0.36477187483458     -0.02660902741314      0.55179924202261
  Li  1.67078819138114     -0.15580202853139      2.96958898946945
  Li  -1.22009457899369      0.10656770523293     -2.30217829822122
  H   -0.89002807383624     -1.27956982692861     -1.31510915516866
  H   1.78797295696025     -0.03562665938122      1.25708335828431
  H   -0.98385662067687      1.39103983702145     -1.16117413638647
