4
Coordinates from ORCA-job orca E -1008.584890175662
  Es  0.14213465879373      0.20050593558317     -0.34503580669756
  O   -0.72100130614196     -1.04660159909705     -1.42751742363226
  O   -0.73292149570741      1.76445029190921      0.16712667637071
  O   1.90827814305564     -0.09646462839533      0.16882655395911
