4
Coordinates from ORCA-job orca E -1022.891681946723
  Lr  1.11867513325254      0.08702357565084      1.32530198478167
  Li  -0.01230933141347     -0.22799123453973     -1.69068329037645
  Li  -1.71224136261668      1.76593058721559     -0.48359391494941
  H   1.20236556077761     -0.80307292832670     -0.58762477945581
