51
Coordinates from ORCA-job orca E -3379.413694570016
  Lu  0.47305762389492      0.02558705370228      0.14589170825992
  N   -1.65337323868444      1.14433927606588      1.21222833950997
  C   -2.87614685429326      1.18259207589596      0.41351401038078
  C   -2.52302185887917      1.03614361655578     -1.06556817490057
  N   -1.60983732734057     -0.07197063202666     -1.28909125704734
  C   -2.21612975531365     -1.39743132434203     -1.29310988347256
  C   -2.18979592226868     -2.08139922097325      0.07519091559919
  N   -0.82864426554000     -2.05771873652275      0.58955473885476
  H   -1.12943055951811      2.00657477139519      1.08602704703298
  H   -1.83243311357619      1.04181788061711      2.20254341335944
  H   -3.52551736295514      0.36353383245187      0.72942155410266
  H   -3.44819585450181      2.10908034230414      0.54975436436176
  H   -3.45257066529072      0.92712156904733     -1.64637963253900
  H   -2.01405504733433      1.94093370710047     -1.39292719657833
  H   -1.05701243004219      0.05413028049040     -2.15446446011295
  H   -3.25306682407915     -1.36276352952711     -1.66041324078825
  H   -1.63733106608412     -2.00950262657782     -1.98700764713134
  H   -2.83551716216888     -1.56275933208146      0.78489998319058
  H   -2.59055254979688     -3.09843766934219     -0.03976081239698
  H   -0.70335317133265     -2.47577183802012      1.50488860013073
  H   -0.20842402197549     -2.55006725268473     -0.05041047118494
  C   2.35674410343458      2.18206432416767     -1.47414228024091
  C   1.05819125267507      2.89748457596324     -1.10491157629978
  O   0.92055594087626      4.08176229448754     -1.39359829541453
  O   0.17630497890594      2.15125000431022     -0.54032747212567
  N   2.55240508843942      0.93702445603513     -0.72409677729664
  H   3.18674577975701      2.88301562585111     -1.37165321977668
  H   2.26129502965158      1.91139405980725     -2.52768596683062
  H   3.19866216657563      1.04535640060911      0.04615329535015
  H   2.88139018899818      0.21745409256647     -1.37724408883276
  C   5.50600227115849     -4.38409209528051     -0.28160644576040
  C   4.82887242413820     -3.36443694664310     -0.93797120543919
  C   3.72274057255272     -2.76602551158907     -0.34909677199584
  C   3.27339729361518     -3.20530430662015      0.89177214207316
  C   3.93423921880331     -4.24670521930632      1.53348876450980
  C   5.05743799095551     -4.82460932687260      0.95860248661188
  C   2.03995762371913     -2.58007421715881      1.51939291555629
  O   1.32124417109822     -3.29432661977223      2.23098419284299
  O   1.85062754860640     -1.35701890195618      1.23918540240284
  H   6.37600885602379     -4.84253221561443     -0.73813835422031
  H   5.14738459936505     -3.02795329556253     -1.91664264807782
  H   3.17756962826208     -1.99209632758191     -0.87332235297407
  H   3.54680755710168     -4.59241901810138      2.48317216264002
  H   5.57985818535514     -5.62404106089494      1.47193785765772
  O   0.32145859142924     -0.00631047225797     -3.33773916599014
  S   1.20154938416449     -1.19347507053650     -2.99796468853218
  O   2.64150275348225     -0.74920318910545     -3.00471954496762
  O   0.88472351531971     -1.43003162872979     -1.46679742378889
  S   0.23862601458765      2.24109436174916      4.73921054958103
  C   0.68857858929784      1.63110555507986      3.27858032567200
  N   0.96997010873048      1.19741742942910      2.23259628503570
