4
Coordinates from ORCA-job orca E -606.140255935316
  Pa  0.45519664276508      0.64603575900964      0.09822649587261
  Be  -0.89671850517297     -1.29809459503609     -1.81249169050888
  O   -0.94490850063452      1.76492080511665      0.13725063279607
  O   1.98292036304241     -0.29097196909020      0.14041456184020
