37
Coordinates from ORCA-job orca E -1858.121210743570
  Nd  0.87610145881391     -1.19325963999094      0.23322853186166
  S   2.69832245616257      0.68675238325113      1.85096938970191
  C   1.51659574469308      1.39408206425430      0.92966959031502
  N   0.63350242480036      1.65480761436891      0.21039709568714
  C   -2.15830987683060     -1.47759081904648     -1.34195562641991
  O   -0.86170738000788     -1.43533912201471     -1.10489528484412
  H   -2.57084350356328     -0.76250692748418     -2.05225009562256
  H   -2.61531274053399     -0.46956840962532      0.29093120768587
  H   -2.67636886452046     -2.42520819813592     -1.20596542055174
  C   -1.92211674499688      3.15760874900641      4.90404217268644
  C   -0.80904340208994      2.33629366021470      4.78516666591171
  C   -0.77266805741228      1.36125032996619      3.80338067427765
  C   -1.85218951342077      1.21650324509547      2.93724897375451
  C   -2.96562913048623      2.04438386791792      3.05043556360985
  C   -2.99918495385347      3.01206482268663      4.03948555645907
  C   -1.77548803763053      0.18614829852945      1.88297049173918
  O   -2.76059345159069      0.19366345693792      1.02329297530575
  O   -0.84791954829647     -0.62470063394265      1.82539398268158
  H   -1.94916966976500      3.91878766125401      5.67229511614108
  H   0.03148098953937      2.45871712690757      5.45382545973830
  H   0.09055994031612      0.72023295450768      3.68959223805679
  H   -3.79188794380065      1.92673719576469      2.36488838483492
  H   -3.86198566066259      3.65657825321619      4.13422482248006
  C   1.34662069925730      0.27074940961309     -3.14697103927325
  C   2.57405734572220      0.62386907348693     -2.34629600998703
  O   2.71896728761364     -0.34888794508561     -1.28326740417869
  H   1.25005472931014      0.95345868689787     -3.99014891834516
  H   0.44447797197197      0.35462320823425     -2.54067944397181
  H   1.41538936614487     -0.74596791065517     -3.53394550577374
  H   2.47498299114651      1.61422813453825     -1.90157228821090
  H   3.47384347267475      0.58986916529034     -2.96119734869984
  H   3.39403219882742     -0.03838291580707     -0.66558505257947
  C   2.06448847691059     -4.35749585950274      1.07587510142028
  O   1.63191022971867     -3.07944847144065      0.72206250820750
  H   1.32023155008904     -4.87109343944339      1.69200635033405
  H   2.99704700148817     -4.31328016856490      1.64659824247186
  H   2.24425214426104     -4.97157890120019      0.18834834309576
