21
Coordinates from ORCA-job orca E -1806.776869021059
  Yb  -0.31448964593153      1.11518835575549      0.87445814039136
  C   2.78819375197867      0.25292110379155      1.36689464693447
  C   2.00236795195281     -0.05381474026421      2.66291388225256
  O   2.59438988567772     -0.61846723752289      3.56128404829505
  O   0.78419962316779      0.36290130887143      2.66189010373983
  N   1.93657860102458      0.17650991081572      0.14683254633821
  H   3.64774359524683     -0.41236456780420      1.31079053582152
  H   3.15871953713316      1.27557796233543      1.45141140052762
  H   1.83183487679153     -0.80157496302769     -0.10302804898885
  H   2.42768388668781      0.59880001528303     -0.63283109336635
  F   -0.91810233616934      2.97189119993870      0.12650869740255
  C   -4.46154521530991     -1.23354405504014      0.01311050564604
  C   -3.16214684818270     -1.00228004536775      0.43099503266274
  N   -2.57048322915348      0.17705115376574      0.23421759963990
  C   -3.28787313061836      1.12583410871832     -0.37652499934940
  C   -4.58966938396537      0.87426329353605     -0.78881041352527
  N   -5.18057967076536     -0.29891750817198     -0.60027558600026
  H   -4.93137966310679     -2.19417258651730      0.17889509995636
  H   -2.59069763738794     -1.77108860147920      0.93447787856261
  H   -2.79941391658982      2.08513951807481     -0.51653870102837
  H   -5.16473103248024      1.64634637430909     -1.28287127591237
