56
Coordinates from ORCA-job orca E -1726.215716977373
  Nd          0.55222904962200     -0.71271995352992     -0.42196315224136
  N           0.62134365772276      0.04398140170389     -2.89204366714106
  C           0.53373562325894      1.54017325068654     -2.99093391191989
  C           1.51521078973399      2.18482881068851     -2.03008009566944
  N           1.24768393823747      1.83535133065683     -0.59428738105727
  C           0.24091777271743      2.72752785019715      0.07936497901733
  C          -1.12667419678874      2.07909260015280      0.21081480355285
  N          -1.01588900064457      0.78917402032899      0.96428387269725
  H          -0.06953718437053     -0.36919405067797     -3.51873109793862
  H           1.51743969756996     -0.23740559061795     -3.29371893954467
  H           0.75218321745808      1.88436960783622     -4.00965609889665
  H          -0.49660508465132      1.84469849362563     -2.77340078509321
  H           2.53182354544844      1.84539019483500     -2.27013242554062
  H           1.50766736960047      3.27319152947740     -2.17592069123715
  H           2.12947486178234      1.99378226786505     -0.11025439943865
  H           0.62001889446208      2.97344977563593      1.07953580978273
  H           0.14279081538822      3.67979927652405     -0.45713693270085
  H          -1.81185265970734      2.77823006041510      0.70719560436499
  H          -1.56244288454837      1.86185298172699     -0.77287549039130
  H          -0.74467951585434      1.00302014045627      1.92443426659545
  H          -1.94663184859149      0.37983457706896      1.05312072499788
  N           0.18168888157680     -3.04454061708400      0.42631744188540
  C           1.12953336715413     -3.65752427025222      1.16308523935007
  C           0.96946525598427     -4.92046640938087      1.70721212939532
  C          -0.22738685148441     -5.58730335663028      1.47072121429701
  C          -1.21168282423469     -4.97025101898253      0.70717902655943
  C          -0.99082598630010     -3.69347421577490      0.19468488326239
  C          -1.99214018846910     -2.97051634576544     -0.61950166892050
  C          -3.25602052780014     -3.48980820548792     -0.89949078050901
  C          -4.15286855914624     -2.75467622626529     -1.66420508009973
  C          -3.77581096053103     -1.50269559959806     -2.14075705459668
  C          -2.50849075365822     -1.04535405802995     -1.82732976115546
  N          -1.62594086303337     -1.74682364942407     -1.08844861616331
  H           2.05975120888428     -3.11030091739350      1.31281063603254
  H           1.76235049025592     -5.36848853265227      2.29710716472611
  H          -0.39575427384614     -6.58156336842373      1.87414334452452
  H          -2.13972731125369     -5.49732419249096      0.52086569585558
  H          -3.55570794061966     -4.46136489450603     -0.52537621844617
  H          -5.13811649565740     -3.15573353162530     -1.88343717085526
  H          -4.44745829026825     -0.89730096416330     -2.74047575912731
  H          -2.18083291072122     -0.06808472237216     -2.18351588377288
  C           4.14578182383883     -0.86265441090654     -0.67181382598830
  C           5.10867589214503     -1.83219593912942     -1.33550889898521
  C           4.25992940341303     -2.45258444732676     -2.45069417307513
  C           2.92920285324374     -2.65193797344622     -1.75748334535890
  O           2.78781689110083     -1.45892766810782     -0.87431157568451
  H           4.14002291084545      0.11738712504641     -1.16214547649617
  H           4.30056810240842     -0.74699319744558      0.40433302022774
  H           5.43805159475445     -2.59912740835150     -0.62730463229053
  H           5.99558274053594     -1.31930019526717     -1.71559462672416
  H           4.66973501071281     -3.39779637802925     -2.81594218511394
  H           4.16447888739982     -1.77074575827011     -3.30355340841073
  H           2.92019798065850     -3.54272398314422     -1.12002440935463
  H           2.05982921627718     -2.67512986567017     -2.42831021656225
  C           1.87045734329660     -0.36009082814355      2.14345009889325
  O           2.38631802469208     -0.25216255056062      3.13416988048374
