22
Coordinates from ORCA-job orca E -6426.574479275029
  Eu  -0.91555496203384     -0.40360877433672      0.17490379036619
  C   0.67876849311839      2.20823639289069      1.94664898477906
  O   -0.28742591026854      1.93123105776371      0.93393232880581
  H   0.41441954590349      1.71405328717320      2.88144868520384
  H   0.76607805926702      3.28915785293771      2.09568583868237
  H   1.62697386558070      1.81553246883802      1.58751029067112
  H   -1.17830223062947      2.19489069464162      1.20999079769531
  Br  -1.87677127886834     -3.07175372519213     -0.26880342616136
  C   -0.99987285678727     -0.51371473354054      2.82640890144610
  N   -0.96656034882709     -0.41896063367374      3.98425578852927
  N   2.33717652122483     -0.21127670056956     -0.24632666649883
  O   3.22188992718111      0.63780180102010      0.01723177078530
  O   1.36459570127921     -0.62229541413793      0.52539015646242
  Br  -3.35069412743166      1.29603633584220      0.32000850221546
  C   0.62413437588153      2.19909045374990     -2.42502405799272
  C   0.02105425608489      0.86972627438602     -2.87299304879899
  O   -0.50961751321506      0.16480773868846     -1.82007387179720
  H   1.02044811270591      2.76211911032345     -3.27816018821631
  H   1.43182040658031      2.02095948356352     -1.71345356677022
  H   -0.13940270829590      2.79841509696186     -1.92638658857247
  H   0.80579492921947      0.28375208593687     -3.38244831438451
  H   -0.75245225766981      1.07349984673308     -3.63534610644965
