7
Coordinates from ORCA-job orca E -3996.740633039423
  Lu  0.00094476332628     -0.00140390053085     -0.00273459123266
  Cl  0.68860700300319      0.42618243630052      2.42646950292785
  Cl  0.40853293537663      0.67748472991347     -2.43718467074443
  Cl  -0.67889350951066     -2.43638401235138     -0.40684844405819
  Cl  -0.42806163858333      2.42857044287439     -0.68621888399001
  Cl  -2.42779175989102     -0.68525065810467      0.43447368141858
  Cl  2.43667220627890     -0.40920903810145      0.67203340567888
