5
Coordinates from ORCA-job orca E -2606.410735387647
  Gd  -0.23700549582487     -0.84196438469753      0.15628298741554
  Cl  2.28439180941878     -0.08870800383105      0.30162921031666
  Cl  1.62931734609684     -2.59998286227745      0.76566824823027
  Cl  -1.21941560029638     -1.01224028866112     -2.09090313140530
  Cl  -1.76279805939436     -0.10414446053285      1.93938268544283
