7
Coordinates from ORCA-job orca E -16392.336684088441
  Ho  -0.00066873671494     -0.00073022675223      0.00047516980406
  Br  0.77993405523420      0.82271841486681      2.52574183640603
  Br  0.81387018497911      0.77421480861075     -2.52926608850782
  Br  -0.81855031692026     -2.53126739205747      0.76964010912808
  Br  -0.76988860165982      2.52678133176258      0.82756429014838
  Br  -2.53091743268804     -0.82521987610082     -0.76301734546669
  Br  2.52623084776975     -0.76650706032963     -0.83114797151204
