57
Coordinates from ORCA-job orca E -3031.811700747689
  Lu  -0.29689674557198      0.52431768502189     -0.24199189268860
  C   1.37689418361356      0.77967397262720      2.64111891844174
  N   0.75554511762605      0.38595714361178      1.72998824397509
  C   -1.51731442841161     -0.05199653594944     -2.18482807201779
  N   -2.19695821097924     -0.41184811822992     -3.04947378715686
  C   3.18339745049355     -0.55262180608265     -3.09684245710793
  C   1.73897801270215     -0.31576550164172     -2.73459961465423
  O   1.58560527494857     -0.23219369482363     -1.28481527677337
  H   3.28712223769328     -0.59386553990412     -4.18024468246913
  H   3.53749713521181     -1.50249002462286     -2.69376636805925
  H   3.82071572467886      0.24506682552454     -2.71811646252341
  H   1.08266968219589     -1.10272652780422     -3.10469196553813
  H   1.37049623054469      0.63314436672413     -3.11823590433526
  H   1.89343348261075     -1.06931545359713     -0.89699577750326
  C   0.97427707206671      5.11404876489827     -1.02820124938026
  P   1.08023974811041      3.71544718767039      0.07710614540128
  O   0.20269224976475      2.57751234702508     -0.45412090039608
  C   2.78684349210260      3.20345135219597      0.19130242931641
  C   0.54381966301483      4.22790002510025      1.70047952681286
  H   1.59216007457449      5.93442082482773     -0.66513662843285
  H   -0.06122123463524      5.44477450815129     -1.09448827539162
  H   1.31382963918361      4.81865804195069     -2.01992361087755
  H   3.40759995215185      4.02796120496419      0.54078939662804
  H   3.13576318100438      2.88114612800591     -0.78920246868469
  H   2.85972053695645      2.37397522832156      0.89489444168275
  H   1.15281136945777      5.05904735083610      2.05500730399045
  H   0.64802928951848      3.38778287941410      2.38739534511821
  H   -0.49859840470435      4.54120649904608      1.65639113544863
  C   1.71122912498265     -4.14656721861052     -0.29882388537347
  O   1.25133287520639     -2.77685097554440     -0.19190285376128
  P   -0.30042148747668     -2.43244601459415      0.07975852441875
  O   -0.99598425972962     -3.35173033387843     -1.01371586370338
  C   -2.43097261397484     -3.35254827211724     -1.14621706185407
  O   -0.69184573222287     -3.24614889006228      1.40714096349105
  C   -0.13444026081610     -2.86739124161528      2.68078091766645
  H   2.78572716713282     -4.12621405078315     -0.15038263355565
  H   1.46668886599002     -4.53426130000901     -1.28360049873973
  H   1.24029976582656     -4.75932599821088      0.46627385145066
  H   -2.65264462049421     -3.80799703258234     -2.10478231783605
  H   -2.81387589363655     -2.33226804784050     -1.14872162924708
  H   -2.87013424669057     -3.93566849168807     -0.33949921708773
  H   -0.74606080849599     -3.34201463041987      3.44114752791179
  H   -0.13983567755506     -1.78677878537749      2.81041511043727
  H   0.89007869555719     -3.22766275229344      2.75760118593665
  C   -3.52306948130956      1.15951197149075      0.23993254355045
  C   -4.62082178614702      0.50204975939563      1.04879483347329
  C   -3.99294940003247      0.41970189575235      2.43897756382051
  C   -2.56172872932002      0.02927992132204      2.12681324411078
  O   -2.27916621902476      0.64505519932304      0.82671984989715
  H   -3.51730237599744      2.24270653200534      0.36335108580525
  H   -3.52017423735445      0.90262793230121     -0.81580089706697
  H   -4.83243278779199     -0.49459794363012      0.66013021495041
  H   -5.54064355062260      1.08108568480281      1.02678821871316
  H   -4.47559066419224     -0.30888775776661      3.08575569956039
  H   -4.02545107225191      1.39120783112720      2.93252988550977
  H   -2.45231731686144     -1.04975963830141      2.00818395954348
  H   -1.82264504862023      0.39732351454316      2.83325418515302
