5
Coordinates from ORCA-job orca E -826.567618284915
  Tb  0.13941770455416     -0.92872171798437      0.21450857809310
  H   1.62262708839238      0.34019356256979      0.12614437678586
  H   0.81916050235529     -2.69276337047577      0.70918159162020
  H   -0.73364774419819     -1.03435166320723     -1.53045937228068
  H   -1.15306755110364     -0.33139681090242      1.55268482578153
