6
Coordinates from ORCA-job orca E -1289.874911870517
  Am  0.02624931271001     -0.66136274384785      1.77886505241608
  C   -0.21682718314121      1.37246248679468      0.61910797341660
  Si  -0.03798908445213      0.54505364415588     -1.07286856113354
  Sn  0.45106271548845     -2.72029103969084     -1.89948118593801
  N   0.16821517771498     -1.09294609617551     -0.43612143449283
  F   -0.39952477008448      2.59898362946965      0.91135258048454
