5
Coordinates from ORCA-job orca E -47.596382679482
  La  -0.60806112733952     -0.76635452136765      0.07461609664600
  Li  2.71687780171046     -0.01245793540465      0.35707244589922
  Li  1.97731186590720     -2.84713894548218      0.90437924635223
  H   -1.45230364988641     -0.90541399176272     -1.90205219724578
  H   -1.93933489039173     -0.11567460598279      1.63804440834833
