7
Coordinates from ORCA-job orca E -16173.727066710386
  Cf  -0.00601981818399     -0.19183248660557     -0.18223023821578
  Br  -0.66731903283899     -0.09096604264296      2.49967220216417
  Br  -0.43184558028267     -0.18044659459447     -2.71512911684519
  Br  0.47297298547186     -2.72415082910135     -0.08005885617105
  Br  0.64628228512731      2.50364415721494     -0.11726714734733
  Br  -2.65101065355064      0.20833967400471      0.41209768344306
  Br  2.63694981425711      0.47540212172470      0.18290547297212
