45
Coordinates from ORCA-job orca E -3066.260850941734
  Dy  -0.29971445293307     -0.10641255698163     -0.34233104329519
  N   1.95689736752306     -0.13217023821683      0.99356147743983
  C   2.74503412354787     -1.37049482353815      0.95258914946896
  C   2.33191714220954     -2.21168942649779     -0.24722500293307
  N   0.87859421295674     -2.40960155049923     -0.30796864046775
  C   0.31070700430918     -3.35600215609677      0.65591447948921
  C   -0.10533769859169     -2.69178748015634      1.96695837919945
  N   -0.95933873562202     -1.52563126430051      1.72363249224818
  H   1.88502088899865      0.23600497691838      1.93370003792034
  H   2.44469149414291      0.56267221406631      0.41278568949891
  H   3.81611374126359     -1.16560385115688      0.86710733304792
  H   2.60450307581381     -1.92626499579185      1.88013706218110
  H   2.60996423570602     -1.67180265345050     -1.15163315318697
  H   2.86502826213594     -3.17220281579596     -0.21987838042512
  H   0.63339097438448     -2.69605833162493     -1.24750092477328
  H   -0.57769242021202     -3.80180497577030      0.20800345482659
  H   1.01324174955238     -4.17136365908848      0.87619378432138
  H   -0.60299882254520     -3.44535062284876      2.58590221083912
  H   0.76790437445340     -2.35107075417633      2.51933116503411
  H   -1.92648205836295     -1.81896200812218      1.62183408738368
  H   -0.90221914623893     -0.86290292257728      2.49160216894299
  C   -1.56837719688055      2.98547503718326     -3.51744554227074
  P   -1.82783065724306      2.81059447767998     -1.75658138494889
  O   -1.74069614830185      1.36791453772175     -1.32822001774184
  C   -3.47882812766527      3.42739258178383     -1.37922531280708
  C   -0.68359702001078      3.91175822751407     -0.93334094064748
  H   -0.54404800091819      2.65007505644521     -3.70697833088081
  H   -1.68362863211294      4.02537099682672     -3.82486542115338
  H   -2.27987755386557      2.35693290685814     -4.05169568615216
  H   -3.60809344924835      4.45200078202247     -1.72672286207474
  H   -3.62055578507893      3.38776268208392     -0.29962539961712
  H   -4.21579703902096      2.78179134137183     -1.85495074146194
  H   -0.99967661459645      4.94619216244139     -1.07666936140865
  H   0.30549223774304      3.75822626900277     -1.36404706738259
  H   -0.66771333771753      3.65915414227953      0.12787610516769
  S   -3.61304060857678     -3.57684411669238      0.07031912655383
  C   -2.66662570324676     -2.48143905380555     -0.68291421657475
  N   -1.94444264310232     -1.69399768835610     -1.16305521785493
  O   3.03435499371780      1.25984117773240     -1.27940134885663
  S   1.60410378210154      1.39845487109307     -1.68339540630538
  O   1.12039441205092     -0.06294359801663     -2.04752720010516
  O   1.44636286311363      2.24124514295200     -2.89441230863063
  N   -0.50828569803782      1.29174616295786      2.63500067963446
  O   -0.61865566802364      2.28708154424085      3.31512361252312
  O   -0.70756371757065      1.45971425238532      1.37543841623530
