39
Coordinates from ORCA-job orca E -1056.790867622494
  La  -0.40162121589665      0.24404374425702     -1.03853940632163
  C   2.20746682310347     -2.06466146576541     -1.04770230811265
  C   2.71246211527612     -0.65839616122163     -1.36026564092884
  O   3.86569162561295     -0.36563113567351     -1.38224686836154
  O   1.70378923749955      0.19388088025211     -1.61094238538751
  N   0.88325910296688     -2.01899235007295     -0.36028352794042
  H   2.95634866187257     -2.59319259789712     -0.46398267823897
  H   2.09307047925469     -2.58951586761303     -1.99623135964536
  H   1.04826323054247     -2.04902295869824      0.64296331561286
  H   0.37932397647433     -2.87838495384677     -0.55788658933215
  N   -0.78264622062415      1.05728211093559     -3.55757929429794
  H   -1.19315125494504      1.97529689086809     -3.71481174325143
  H   -1.31574996406393      0.42767093810392     -4.15382653027989
  H   0.14611317617282      1.10552340737546     -3.97497521805702
  C   1.75963533728394      3.68955369114655      1.46861487150810
  C   1.38339689886747      2.64416159643617      0.63541426802000
  N   0.12305952159192      2.18378105063452      0.63688152787463
  C   -0.74319136030195      2.77819722911302      1.47056416799210
  C   -0.34800615070539      3.82023593109285      2.29124267377575
  N   0.90043806036613      4.27412963390922      2.29146989404818
  H   2.77798060642047      4.05526083584806      1.46386870176953
  H   2.09318056336448      2.17648674916107     -0.03605748357778
  H   -1.76567771460630      2.42103075421303      1.48184186427999
  H   -1.05298364304681      4.29717035967616      2.95934867979557
  C   -5.92071479140417     -4.33867720079790      0.71056283427117
  C   -5.44435791163254     -4.15765072520164     -0.58233951208808
  C   -4.41262552958295     -3.27044987368413     -0.81517519983720
  C   -3.85502232620164     -2.55861313332561      0.25422945035463
  C   -4.34060499338967     -2.74732531892807      1.55593626618209
  C   -5.37075354116799     -3.63612474543575      1.77939023616023
  C   -2.77838771283696     -1.64224064750373     -0.04535029616406
  O   -2.28193759561401     -1.44258335680052     -1.15597596468116
  O   -2.20537643754166     -0.89851210881569      0.93805145188797
  H   -6.72884580570377     -5.03397468879201      0.89113033077893
  H   -5.87962618141104     -4.70865600629578     -1.40315265995193
  H   -4.03165672471099     -3.11719015807680     -1.81442130946669
  H   -3.93497502849020     -2.22059652731166      2.41310915436138
  H   -5.74865377940721     -3.78638458990254      2.77995708020410
  H   -2.60151353338483     -1.05092923136209      1.80616920704504
