4
Coordinates from ORCA-job orca E -1107.781496247856
  Am  0.18634574675265     -0.22741253584162     -0.58076584031542
  H   -1.30392404606703     -1.21814306414308     -1.56867446269817
  Sn  -1.16038720070465      2.39594040630926      0.18184881311668
  I   2.87445550001904     -0.12849480632457      0.53099148989691
