5
Coordinates from ORCA-job orca E -2704.367478044589
  Lr  -0.43356387567813      0.35700595671391     -0.80464397685812
  Na  2.87650253205395      0.49096111222923      1.15970157421389
  Ca  0.67059009816010     -2.67379769821142      0.33030510819883
  Cl  -1.51890543535965     -2.06949588533247     -1.12666934384755
  S   -0.90013331917627     -0.75171348539924      1.51336663829293
