4
Coordinates from ORCA-job orca E -3121.835684179250
  Cm  0.40788306655186     -0.03618538583311      1.29088104218336
  Sb  -0.31924668898583     -0.08022368331062     -1.63758230061514
  Li  -1.36916090461837      2.14248361225035     -0.48640536768618
  As  1.87701452705233     -1.20418454310663     -0.60349337388204
