43
Coordinates from ORCA-job orca E -4953.598689128412
  Eu  -1.50930431421143     -0.61230464407887      0.37224464838855
  C   0.31148226474288      2.64933211765139      6.27506769604246
  C   0.95566624028247      2.96846424673022      5.08665588442297
  C   0.59408619612790      2.32792135601177      3.91312943845915
  C   -0.41322106445608      1.36927601292746      3.93068310880034
  C   -1.05970090724979      1.05084770794895      5.12007824993744
  C   -0.69475736569229      1.69226736057127      6.29241781342741
  C   -0.80074154906053      0.67260232691275      2.67796764509249
  O   -1.72368967547724     -0.18822476203917      2.68640732178566
  O   -0.19055519991423      0.93756113803702      1.58776372504879
  H   0.59483264703784      3.14954175202252      7.19161057334971
  H   1.73729071038635      3.71595555657259      5.07741157166540
  H   1.08157301253452      2.56192320802121      2.97709904539015
  H   -1.83983127581982      0.30287712416935      5.10739193433767
  H   -1.19385008508084      1.44756591696361      7.22002254263730
  C   2.35457461179614     -3.26273843118020     -0.74968093399525
  C   1.08828924459250     -2.85542730593262     -0.36019313547726
  N   0.88478542307594     -1.64388447793382      0.15872233838935
  C   1.95290762724094     -0.85893624364667      0.30064505966115
  C   3.21232664359105     -1.28354483985369     -0.09178963371256
  N   3.42112243111954     -2.48062031178910     -0.62685038692944
  H   2.50618239764695     -4.24756627868658     -1.17290644717722
  H   0.22288468662677     -3.49754319023226     -0.46122767757145
  H   1.78667707487089      0.12121100039636      0.72638502378165
  H   4.07065036544885     -0.63440740195807      0.02479252940030
  I   -2.53731737542053     -3.41755728611066      0.61851922333638
  C   1.42671473342568     -1.39050266272684     -4.01674382888237
  O   1.08772854560656     -0.60777342076063     -2.86828870625622
  P   -0.41277874668701      0.00002386716703     -2.78880536655473
  O   -0.20086971217506      0.73469831726766     -1.33462324891830
  C   -0.08834632316541      2.17647742002598     -1.30673215864394
  O   -1.22393620043956     -1.26936076512984     -2.10647194202545
  C   -2.32243119415093     -1.84434842268361     -2.86411681423202
  H   1.05313250418444     -2.40858242508861     -3.90182166558180
  H   2.51041658867609     -1.41101891026318     -4.08200954574319
  H   1.01672104736117     -0.95286957234693     -4.92945096858335
  H   0.05709344098737      2.44684318212143     -0.26637848523069
  H   -1.00857268070558      2.62094127521530     -1.67941162212625
  H   0.76919782085435      2.48678254159197     -1.90127247695149
  H   -2.53423416122696     -2.80539653336588     -2.40793302785081
  H   -2.02660359732482     -1.97200988323151     -3.90450519681527
  H   -3.19169279234663     -1.19476586939163     -2.78882607035105
  Br  -3.48770203761250      0.97957021010459     -0.68737603374436
