27
Coordinates from ORCA-job orca E -2005.285845274945
  Dy  -0.74366955257927     -0.29431152436146      0.27678826943984
  C   2.14571114729465     -1.93543951594135      0.56117084580635
  C   1.25297564561033     -1.15747721831760      1.50952876730801
  O   1.38245493708721      0.08288538534158      1.55475578866918
  O   0.14772438040937     -1.72388874823992      1.81565055455003
  N   1.42008620996774     -1.62387807215374     -0.70501766251725
  H   2.12381735043532     -3.00129727672142      0.76370225159628
  H   3.16526933761627     -1.56218143438772      0.54877842441024
  H   1.16732831063917     -2.46083293524278     -1.22155206933022
  H   1.97930229100965     -1.03746855311915     -1.30955545978719
  C   -2.96735300894072      3.34769095935128      1.77114730895412
  C   -2.02767049619234      2.58866490468741      0.88318975473562
  C   -1.30504200089132      3.26015570801572     -0.10371088897660
  C   -0.41007865632381      2.65006175746321     -0.99324667752900
  O   -0.12516839160449      1.41191642646981     -0.99785034819338
  C   0.27933185241637      3.48077148275597     -2.03547394470253
  O   -1.95859991437130      1.33242260289851      1.09917389711858
  H   -3.00984025247560      4.40452901141578      1.52487241455827
  H   -2.64549626635707      3.22508253217766      2.80544683410610
  H   -3.96160421970578      2.90917590335200      1.68815784698387
  H   -1.45622808740161      4.32373642210085     -0.19778338806964
  H   -0.02602252320516      4.52260126382489     -2.00838905301474
  H   0.06416407476174      3.05955243992837     -3.01735576078560
  H   1.35621538019844      3.41114705162825     -1.88122146900962
  S   -0.85378662653407     -3.74151011310606     -2.53299931390437
  C   -1.50021710080915     -2.53869200162750     -1.69295242263185
  N   -1.94935652370791     -1.64021226870228     -1.06435749939606
