14
Coordinates from ORCA-job orca E -1426.047132364486
  Er  -0.01168628466432      1.04694385653243      0.87466095770623
  C   -0.48265401125883     -0.77938796825510      2.91316615241214
  N   0.14688934603307      0.21431916529036      2.89135608774383
  N   1.87001358097171     -0.04953715162620     -0.17587048849288
  H   1.70910127451064     -0.60453527332458     -1.01366096346232
  H   2.31602112311875     -0.68231725705012      0.48772903605789
  H   2.58630692480915      0.62764804267199     -0.43604299472523
  N   -0.67174488377427      3.05548155409534     -0.10903366743142
  O   -1.08156907483503      4.02705443595472     -0.62770032647017
  O   0.53686779774143      3.07096164055748      0.43798122340152
  N   -2.04777871094381     -0.08925905738076      0.18956633156290
  H   -2.86153433283999      0.52163641173343      0.23653546440409
  H   -2.21606296389035     -0.83429566694418      0.86718709042171
  H   -2.09856978497814     -0.52291273225488     -0.72927390312831
