28
Coordinates from ORCA-job orca E -1545.929870158846
  La  -0.82997288185311     -0.00622410611419      0.00013719659448
  N   1.55971531897933     -0.29781084567822     -1.26039715033033
  C   2.57432680121949     -1.05427517834334     -0.51884488977905
  C   1.93648341269843     -2.23027718223020      0.20231490800859
  N   0.93890759923248     -1.74330062272323      1.15979810161278
  H   1.26436430277136     -0.79008733779894     -2.09575104604846
  H   1.90110318982960      0.62084809133150     -1.51133643318532
  H   3.01391068900616     -0.37510216590847      0.21274684248024
  H   3.37942443071246     -1.42059839549948     -1.16409377045831
  H   2.72391285492589     -2.82414815378644      0.67840020452944
  H   1.42375694644628     -2.87103272621271     -0.51822956353650
  H   1.37780645177830     -1.14810335410292      1.85680110686847
  H   0.49482960659021     -2.50230834712537      1.67016678117028
  C   1.97425441599501      1.84339110194656      1.47887154037245
  N   0.91675887643034      1.44770097515295      1.17758971018911
  O   -0.88162061337219     -1.75099484111936     -1.76579901714486
  S   -2.14003873931240     -1.65057340092315     -2.62215844618117
  O   -3.01396646432376     -2.78112253693635     -2.37736408912749
  O   -2.91676932471419     -0.40920435201209     -1.72966691232108
  S   -1.20879194272120     -2.77452972694459      3.79270982007225
  C   -1.72398723795653     -1.56279059228943      2.83552714721792
  N   -2.06540977385918     -0.69333144323100      2.12208498486801
  C   -0.93102360955533      2.96866495193363     -1.92357079327678
  O   -1.27703133252946      1.71142487492612     -1.44110814824838
  H   -1.78267736981947      3.66195110740256     -1.89752007259307
  H   -0.58855508556452      2.92427816268243     -2.96745221676397
  H   -0.12491282638112      3.42462357977598     -1.33417050346972
  H   -2.58909769465298      0.46093246382790     -2.04618529151939
