5
Coordinates from ORCA-job orca E -416.678328881460
  Th  -0.11450599872962     -1.14595336507382      0.22981256037562
  Li  2.44183404097117      1.04142448466236      0.07799989433211
  H   0.71949623964143     -2.95498462107793      0.75493256014210
  H   -0.94946854859625     -1.17101406303997     -1.65313047430680
  H   -1.40286573328673     -0.41651243547064      1.66244545945695
