25
Coordinates from ORCA-job orca E -2824.010071027728
  Yb  -0.79217360912541      0.20797936421946     -0.33705735557448
  C   2.01257591115779     -3.06419871669243      1.65623406610270
  C   1.59962329138512     -2.16577009081366      0.49391343915488
  C   2.63801990382792     -1.62500548021158     -0.30885427984667
  C   2.40790355749619     -0.67124048886764     -1.31623472138028
  O   1.31785044790171     -0.16706244110836     -1.63753164775406
  C   3.62321109884319     -0.18208985918011     -2.11125699295326
  O   0.38918405628329     -1.95581114286842      0.35410698888573
  H   3.03179703806210     -3.44527309308311      1.55697409947324
  H   1.30568036990982     -3.89112170761188      1.73481915897575
  H   1.94429359519833     -2.47104620690232      2.57152920084588
  H   3.65996141964508     -1.90905756186664     -0.08988001409366
  H   4.55851032118280     -0.64495322202778     -1.78976929496041
  H   3.68873082699545      0.90090298876625     -1.99882485602303
  H   3.45496203291495     -0.39281161370566     -3.16953244170928
  S   1.81209490927611      0.01767254870487      4.66622893408561
  C   0.98994557742502      0.22721157540842      3.22218931569956
  N   0.41867005927486      0.36294264266532      2.21853179223005
  O   -2.43626736705257      2.14591684371648      0.08241925430334
  S   -1.67905357412098      2.77654470515374     -1.09137153685445
  O   -1.75660822067104      1.70703696106153     -2.18801443932534
  O   -0.21647346420155      2.74090620789292     -0.64747670468320
  N   -2.85300782467343     -2.08078391392271     -0.67070757374312
  O   -2.74765293418126     -1.39987978897210      0.37279729275671
  O   -2.07867742275367     -1.75290850975437     -1.59443168361222
