5
Coordinates from ORCA-job orca E -423.542215706546
  Th  -0.17716668310403     -0.86665938476066      0.15740481130406
  Li  2.32458788640048      1.41487535179733     -0.08291897295383
  Li  1.06843727174151     -3.89002020789286      1.06980007377092
  H   -1.04587491038934     -1.06184009893604     -1.69168471169179
  H   -1.47549356464862     -0.24339566020776      1.61945879957064
