15
Coordinates from ORCA-job orca E -4172.564973586909
  Gd  -0.03406588334853      0.14699727005886     -0.48913213671935
  O   -1.36101359441885      0.48292927492004     -2.21696798231676
  S   -2.32057040447188      1.59553273536209     -1.62438134254401
  O   -3.53088108354009      0.88892969305005     -1.13970685350746
  O   -1.47701048082807      1.95145860837334     -0.34801622332440
  O   0.34228520755913      1.54272301291182      1.61784185293245
  H   1.15320580567910      1.78352055086572      1.12381669056846
  H   -0.34280651061510      2.14323520569238      1.28346293228966
  Br  0.73951500339721     -2.57289823699386     -0.44676720280822
  O   1.83815847792726      1.23150703909693     -0.51421574703696
  H   2.65657689165211      1.26826575937702     -1.00167666383967
  N   -2.03364700689174     -0.72111586641386      0.84411929136310
  H   -2.78215283514847     -0.31593689209781      0.26903434333320
  H   -2.13903099809759     -0.37464856684435      1.78844898951426
  H   -2.10526258885441     -1.73039958735847      0.85414005209570
