4
Coordinates from ORCA-job orca E -760.072026296245
  Am  0.48627548074221      0.68688283496951      0.08024613941026
  Be  -0.85335700694473     -1.22609469683966     -1.66598251208188
  O   -0.92624687044796      1.68492662623777      0.07867243569554
  O   1.88981839665048     -0.32382476436762      0.07046393697609
