4
Coordinates from ORCA-job orca E -852.915938292743
  Pu  -0.06375118390537     -0.05985403605032      0.16677312536435
  F   -0.61446803814094     -0.95622590729871     -1.58530674620521
  F   -0.69794537214341      1.88316737994193      0.00670681902484
  F   1.97265459418972     -0.04519743659289     -0.02477319818398
