5
Coordinates from ORCA-job orca E -1656.815937249575
  Dy  0.47387059251065     -0.49374726847263      1.67610514572153
  B   1.49003735753064     -0.64400906973408     -0.43259800058990
  P   1.38240492376588     -2.34676440923976     -0.31808908084258
  Li  -0.84552502727690     -0.88979265512022     -0.93009960312693
  S   -1.80629784653026     -0.27272659743331      1.07674153883788
