5
Coordinates from ORCA-job orca E -1184.098764052619
  Np  1.53503073926166     -1.17829351878187     -0.50131869810066
  H   0.78757368155797      0.35793826787275      0.64848143634405
  P   0.70789603755667     -2.54121581128373      1.27872460818537
  I   -1.08327576504996     -0.78198152712443     -1.79937283159356
  Sr  -1.25273469332636     -0.50348741068270      1.44554548516481
