4
Coordinates from ORCA-job orca E -603.912673798356
  Am  -0.61336560900139      0.57348141225964      0.43385091051632
  Li  0.07642285753368     -1.37509581658018     -1.88758504518832
  H   0.27838973879025      2.47451457228030      0.47539918092642
  H   0.85504301267746     -0.85101016795978     -0.45826504625442
