5
Coordinates from ORCA-job orca E -740.673096091063
  La  0.61665529512635     -1.02033884154490     -0.71237437619386
  B   2.26463010552652      1.02540721527260     -0.17493617002611
  P   1.00008116892777     -3.31725432777768      1.69564235400897
  O   -1.21613083463256     -0.24169287999824     -0.99973562330683
  Te  -1.97074573494810     -1.09316116595177      1.26346381551783
