54
Coordinates from ORCA-job orca E -7240.709244442158
  Eu  -0.09564372764867      0.01427823545518     -0.19099646892110
  C   -1.15961764372488      0.11840207084731      4.33758305803303
  C   -1.46733866202630      0.06784140672840      2.86500361071618
  C   -2.80019944026696      0.03290014258537      2.44282101955923
  C   -3.18656430682300     -0.02432788042376      1.09604954187843
  O   -2.38426538655614     -0.09437635775984      0.12347271366484
  C   -4.64991945084202     -0.01949797007478      0.74428726662058
  O   -0.46342431445545      0.07036963078151      2.09157836735039
  H   -2.05342363590991      0.07862949987805      4.95456225580545
  H   -0.61382296042815      1.03823168280556      4.55143317362808
  H   -0.50212280459833     -0.71404419131774      4.58834635232082
  H   -3.57386496746846      0.06749381905586      3.19437486047056
  H   -5.29249622906057      0.03506053471499      1.61914640873473
  H   -4.87951420005592     -0.92122589856368      0.17536526440650
  H   -4.84497624222475      0.83111035843736      0.09120964498178
  C   -2.35141702211608     -3.28415025110860     -1.13323063865047
  C   -1.63331349398484     -3.19717879318828      0.19543790220145
  O   -0.45178306785114     -2.38458234278420      0.11413949874147
  H   -3.24647328261572     -3.89961970403121     -1.03208940874710
  H   -1.71288514720834     -3.73480469301243     -1.89405438975292
  H   -2.64047368404516     -2.28903651926104     -1.46834533957448
  H   -1.34892976593673     -4.18312289719390      0.56702825057167
  H   -2.25820957946760     -2.72155602177988      0.94922849135081
  H   0.28255980880055     -2.83929062985922     -0.32061958240334
  Br  2.32126598891326     -1.39149167516010     -0.90534383710582
  C   1.75417905851462      1.08790660631243     -6.44506656125043
  C   0.40391709722739      1.29744778528077     -6.69085729379212
  C   -0.52859979571372      0.98955686993670     -5.71503787686968
  C   -0.11080415885435      0.47050237656324     -4.49161452973423
  C   1.24202126576809      0.24458464133338     -4.25459038196048
  C   2.17101014867327      0.55902309001051     -5.23136789569939
  C   -1.06612600870918      0.13046487380984     -3.40957818561262
  O   -0.76250845109708     -0.58241354882935     -2.46847955593829
  O   -2.30793144269364      0.59107483903749     -3.48178503505507
  H   2.48247802452705      1.33282416967755     -7.20651946287758
  H   0.07807138513360      1.69446613924714     -7.64213097511283
  H   -1.57959017032874      1.13087730528609     -5.93831227273898
  H   1.55700445587424     -0.17643735100609     -3.30851342934988
  H   3.22210344453756      0.39012643839064     -5.04215361078105
  H   -2.37000415585712      1.28570944179791     -4.14617897337948
  Br  -0.29060831780291      2.59731110181737     -1.29299333957349
  C   3.39651087713668      2.23459477101251     -0.00594680404644
  P   2.11075693299859      1.54724156358952      1.08753293694927
  C   1.57700826281555      3.01245027513571      2.03722236026695
  C   3.08875818299450      0.62566060375915      2.32306897304464
  H   4.14492171708656      2.79453706664218      0.55645340203373
  H   2.92078552724816      2.88959163348619     -0.73534731395684
  H   3.87727479080786      1.41495015395829     -0.53894524449648
  H   2.42032637811348      3.51624024426436      2.51186968828807
  H   0.86749941721315      2.70017614367507      2.80373335736836
  H   1.06875873730371      3.70220933258296      1.36457217971106
  H   3.85233541690059      1.25381092168913      2.78417131182223
  H   3.56209915250770     -0.22531520300959      1.83456542204191
  H   2.41740544527606      0.24731615877794      3.09394109481857
