4
Coordinates from ORCA-job orca E -499.080974143087
  U   -0.58822382119520     -0.80180804046834      1.39254969030817
  Li  -0.35738573552056     -0.55294229458773     -1.89025220528639
  Li  -0.40889289738139      1.97213755325678     -0.53058789605531
  Li  1.95099245409715      0.20450278179929     -0.40830958896645
