29
Coordinates from ORCA-job orca E -3216.554405749353
  La  0.04533421259472     -0.52669940540417     -0.30379795301048
  N   2.45050735104504     -0.82421179830836      0.80742940877755
  C   2.44912495790994     -0.37472058615587      2.23474152778203
  C   1.62773153374704      0.88724425897185      2.38514177891007
  N   0.20760253103872      0.61741686311615      2.01756158154212
  H   2.90671722141559     -1.73284018417833      0.76013106127845
  H   3.07567051127788     -0.20686941038332      0.28886279677360
  H   3.46465478328947     -0.20135772634310      2.58778674690370
  H   2.02806117063661     -1.17922642080941      2.83946408087400
  H   1.99992664430091      1.66842460640423      1.72074963231571
  H   1.70498602831283      1.26055641012700      3.40537875161449
  H   -0.29390139795025      1.50276684573571      1.97823394650945
  H   -0.24008729760905      0.09866842627577      2.77091100954553
  Br  0.38416997650830      1.89599914782320     -1.40333278628755
  C   -7.19493983486230     -1.17912983470375     -0.21504665271181
  C   -6.56608116790718     -1.57929243983240     -1.39179816948162
  C   -5.19135820520986     -1.54854873779381     -1.47559284755715
  C   -4.43835300124777     -1.11437746027159     -0.37292043682048
  C   -5.07889725617042     -0.72176349441702      0.81104580723164
  C   -6.45598643063334     -0.75334625097302      0.88323587744354
  C   -3.00436686107050     -1.05104543447970     -0.40782813218319
  O   -2.25135179536373     -0.78573307698217      0.54249145644556
  O   -2.31870077188565     -1.28419014431161     -1.55948221731872
  H   -8.27436958429351     -1.20340021462571     -0.15578283129270
  H   -7.15267908133050     -1.91674840287733     -2.23349766020140
  H   -4.73088447552147     -1.88968873449499     -2.39610814247012
  H   -4.48924305711305     -0.39137458553868      1.65371095796610
  H   -6.95822381524512     -0.44769042478043      1.78928423370306
  H   -2.88536288866216     -1.39422179078878     -2.33577282628172
