29
Coordinates from ORCA-job orca E -2736.118647960017
  Ho  0.69196851954395      0.56118046698493     -0.07206815354858
  C   -1.30051096736846     -0.70973445234089      2.40943638233970
  C   -1.01354782610110     -1.15458883406812      3.83011215294194
  C   0.00939890329872     -2.26735061190432      3.61016445469665
  C   0.86954708193290     -1.68985363500868      2.50297820851412
  O   -0.04373057546387     -0.87915051089368      1.70084491755383
  H   -1.59580497328783      0.33277332179316      2.31924197315275
  H   -2.04469362452112     -1.35585173017594      1.93559656604543
  H   -1.91258091701002     -1.48697838928901      4.34427555615301
  H   -0.57200712521719     -0.33404802848134      4.39619188853394
  H   -0.48520249180113     -3.18189906799371      3.27950011622983
  H   0.59655647726728     -2.49585382049946      4.49645684023721
  H   1.32805354881422     -2.43108813657302      1.85145091339551
  H   1.64764984918888     -1.03350975377024      2.88933876571073
  S   4.06351773007595     -2.41690842540091      0.34531805361360
  C   3.36466956944024     -0.97944569523805      0.52532693719010
  N   2.78761912685159      0.04391564156205      0.64350029680878
  N   0.81756915379900     -1.72027769736480     -1.15453596453871
  H   1.75414183123437     -2.11747000653189     -1.06981275365838
  H   0.60677520900437     -1.65663339551286     -2.15047130158911
  H   0.18416213035145     -2.41079589042530     -0.76665411564193
  N   -1.66748923271400      0.21126721996633     -0.89967577462900
  H   -2.07378742359880      1.13617502658959     -0.78730332728241
  H   -2.29115123327683     -0.43649837626732     -0.43272066113906
  H   -1.69030547108728     -0.00816950926964     -1.89597076668046
  Cl  -0.35471270050934      2.48282209072533      1.18857577265428
  S   -0.35082730298735     -0.12404480504068     -4.22112118173776
  C   0.43333542339285      0.73816268158535     -3.10136134873629
  N   0.96678731074836      1.30865432284370     -2.21871444658985
