5
Coordinates from ORCA-job orca E -6183.187597296031
  U   -0.04179450233977     -1.05540960705884      0.20950797986214
  F   1.50643203548706      0.32666218390597      0.12437995452557
  Br  1.44698953935047     -3.37337458085438      0.83906905315572
  Cl  -0.71946672354326     -0.85045309274497     -2.31216208888035
  Br  -1.49767034895451      0.30553509675222      2.21126510133691
