4
Coordinates from ORCA-job orca E -957.674429883104
  Sm  0.10988309293437      0.20880470653844     -0.27000987327020
  F   -0.73813438372745     -1.16524638059574     -1.54672229451199
  F   -0.86563917393737      1.96057823347788      0.21912075929541
  F   2.09038046473045     -0.18224655942057      0.16101140848677
