41
Coordinates from ORCA-job orca E -1571.300083215490
  Gd  0.39259725159654      1.29248963948232      0.49852893794141
  C   3.55215085255946     -0.62325601762901     -2.37005594426078
  C   2.53549045564658      0.14368764609727     -1.82633592336638
  N   2.15298024165486     -0.01910554680915     -0.55077579817365
  C   2.79411729660387     -0.95114184069520      0.16917267522388
  C   3.81033010959951     -1.70836987729015     -0.39558612296072
  N   4.18671256208645     -1.54586325388965     -1.65664937613661
  H   3.85746311147306     -0.48806712676535     -3.39928454149482
  H   2.02880453768870      0.89238744030267     -2.42353907342958
  H   2.49126461601412     -1.08676395503882      1.19842729042825
  H   4.32611556240917     -2.45946829054579      0.18808604140777
  C   -2.71650474158986      0.05010809452988      0.59243762536192
  C   -4.03660491898557      0.28427070727450     -0.10716716149476
  C   -3.62188671726334      0.38875371640468     -1.57431321021933
  C   -2.35406982979478      1.21313193032205     -1.49618429594050
  O   -1.73009312501548      0.82177376920905     -0.21197596201889
  H   -2.40564075481602     -0.99232833276063      0.55836557207831
  H   -2.66727883288243      0.42615546016137      1.61093566988918
  H   -4.49590311465692      1.21119895658189      0.23493712056117
  H   -4.73221795692310     -0.53072376231425      0.07608962839582
  H   -4.37270855946354      0.87197972700558     -2.19406991419996
  H   -3.41369250470848     -0.59630420258953     -1.99058993157996
  H   -2.56225806430415      2.28116893293572     -1.44510069576742
  H   -1.64038567600181      1.00149159968214     -2.29100680566613
  C   -0.13729076250573     -1.61856901864425      3.39587587504625
  C   0.36819816112389     -0.20150435923041      3.52657656496022
  O   0.40897861099330      0.44961057276777      2.24292013157336
  H   -0.15322426869799     -2.09471695749018      4.37529345149350
  H   0.50790990963044     -2.21230989014874      2.74789336704933
  H   -1.15177280395159     -1.63977946252204      2.99861202066294
  H   1.37703460564104     -0.17628966968799      3.93800425978802
  H   -0.27706414462942      0.39021705663235      4.17490530405353
  C   0.46686847265182      5.85921831804662      1.06469588799621
  C   1.17499903782063      4.71332639831677      0.39532135511214
  O   0.96493716852298      3.45342328106388      1.14967510752713
  H   0.63735553905333      6.76801921144484      0.48879425005194
  H   0.86066318842346      6.03406304541845      2.06666465214912
  H   -0.60663248032978      5.68936870664869      1.12417044367612
  H   2.24925388279239      4.86759871068162      0.32733566057313
  H   0.78028323697945      4.51276520580953     -0.59993009479551
  H   1.13202084555498      3.63275343723125      2.08394595850425
