52
Coordinates from ORCA-job orca E -2728.371729423833
  Er  0.35859624050965      0.28676282242529     -0.07251074664707
  O   0.62626688914579      1.35930765512364      3.60556111747619
  S   0.89990654647282      0.37326781533019      2.55583248429983
  O   -0.51613492139170     -0.01404975416911      1.89940156653043
  O   1.49421219051900     -0.88054860273707      3.06516029734180
  C   5.57813784317075      0.07585067518125     -0.70721613404932
  C   4.94185240451325     -0.42328127467649      0.41737796676053
  C   3.56412067378733     -0.33103162125356      0.50623294308652
  N   2.81948772471735      0.22053079771369     -0.46524803803149
  C   3.44017568550034      0.70246060286739     -1.54870809266570
  C   4.81280310981537      0.65120700939167     -1.70879285584590
  H   6.65441965157158      0.02165665554643     -0.80041980871158
  H   5.49678736650425     -0.87243146642093      1.22810702371076
  H   3.03379167077624     -0.69654332095262      1.38089557994414
  H   2.80540381379952      1.14402670482425     -2.30535007039423
  H   5.26431771047559      1.05749292949418     -2.60193677557544
  N   0.21734771578181      0.06133430694831     -2.98415210225135
  O   0.42693611730570      1.14008670378081     -2.36979716501634
  O   0.09011716011889     -0.90796537700630     -2.21025677496400
  C   -0.93992723565516      5.41055644551420      0.43041763404025
  C   -0.80051431894320      4.85132922139683     -0.83007178280341
  C   -0.40202333943799      3.53268868061376     -0.93494764590769
  N   -0.13826104310781      2.75935356359156      0.13042424158645
  C   -0.27569694570463      3.30745292990877      1.34889100168535
  C   -0.67181434447622      4.62248037311025      1.53388835127664
  H   -1.25144038826901      6.44007417001917      0.54662899594740
  H   -0.99724259912245      5.42121332503256     -1.72651592163696
  H   -0.28614196083907      3.07089382441022     -1.90361232159695
  H   -0.05726625115373      2.68237051170719      2.20801846310985
  H   -0.76261209255692      5.00464307074067      2.54010426902260
  C   -2.73757898416248     -2.17604120007389     -0.82305783707019
  C   -2.89554564788603     -0.69103688562990     -1.06167165543731
  O   -1.98753299270307      0.07503960126009     -0.25429526275530
  H   -3.44295243258350     -2.73132619442432     -1.44163083269192
  H   -2.93197296016407     -2.42532847938886      0.22134992811280
  H   -1.72681812556202     -2.49136796928881     -1.08001209975127
  H   -3.91189994463704     -0.35483940744657     -0.85181133542599
  H   -2.65693114728468     -0.43268875261166     -2.09078588108623
  H   -2.14656566137278     -0.05635486084368      0.69568144377432
  C   0.30254371634709     -2.93319062209145      1.26767413884077
  C   1.53572267406618     -3.74649538338015      1.62659688609272
  C   2.35478964228273     -3.78159403996421      0.31664481872197
  C   1.56727784497556     -2.88471995757922     -0.64016472251891
  O   0.75804624959298     -2.05256883179969      0.21124931580963
  H   -0.07045606062358     -2.31339871300469      2.07324672161106
  H   -0.49228226640256     -3.55960943347183      0.84985205282870
  H   1.26863819047896     -4.74144905478915      1.97786913741317
  H   2.07560931777302     -3.22872815069986      2.41568160040365
  H   2.45241335405232     -4.78650799711980     -0.09067121359704
  H   3.35869004677282     -3.39044287562688      0.47548617254050
  H   0.90181600061470     -3.46029393135188     -1.28788159480270
  H   2.18078411259786     -2.24074623812964     -1.26335548073374
