6
Coordinates from ORCA-job orca E -894.709711781291
  Dy  -0.66273305715364     -0.76620296094090     -0.15595347620915
  Li  0.89400003597573      0.91711968932555      1.69252328396303
  H   -0.33601302364176      1.26621689923831     -1.24476762820489
  H   -0.96393806643663     -2.71934904245885     -0.24373131927093
  H   1.26516339663664     -0.21239880856688      0.44603767584116
  H   -0.19646928538034      1.51461422340278     -0.49409853611922
