5
Coordinates from ORCA-job orca E -1207.249098088301
  Cm  -1.27886444937795     -1.60838927087511      0.87222548807254
  Mg  1.50941304464793      0.13410406231355      0.74891506195155
  B   0.85840611645980     -1.94066763132077     -0.26002982221198
  Si  0.00531952993488     -1.18477819047403     -1.75309057534186
  N   -0.39978424166467     -0.04730896964363      1.46403984752975
