4
Coordinates from ORCA-job orca E -3362.700641970650
  Np  -0.36248187217442      0.67781940110557     -0.07591714908543
  Mg  -0.74889900476756     -1.88997554687763     -2.06330976351896
  O   -0.51196199713925      2.32812419923990      0.70449308819797
  Br  2.21983287408123     -0.29407805346784     -0.00186617559357
