57
Coordinates from ORCA-job orca E -1926.862732270763
  Ce         -0.22249706937429      0.05195586573440      0.20923664272556
  C           4.23277141186662      0.39346601398608      1.55002722253899
  C           3.10893918191599      0.27810003836652      0.56928671278684
  C           3.38281678392911      0.11784770776031     -0.79876346092161
  C           2.43258464565122      0.13876803953750     -1.82761661400187
  O           1.16038388170978      0.24023865864982     -1.62992209689194
  C           2.87652737703026      0.07599494245060     -3.25646966611828
  O           1.91615784851520      0.34868749174153      1.04912725831156
  H           5.21158171727623      0.25528076573501      1.09004532888397
  H           4.10079880271788     -0.33731321443330      2.35545922781163
  H           4.19678701220299      1.38556036965101      2.01596518630392
  H           4.42435676759602      0.05487921760946     -1.09037215028558
  H           3.94132844645284     -0.13519891167730     -3.36022990814565
  H           2.66448521064605      1.03808767753044     -3.73950560479880
  H           2.29718066658540     -0.68197585242583     -3.79425602561198
  N          -1.73290602258402     -1.80826960169675     -1.03743829442647
  C          -1.21872874531945     -3.20132511543533     -0.90862182010720
  C           0.29249279620602     -3.20098925847407     -1.04731427069757
  N           0.89428534076066     -2.37471480334753      0.03185516668963
  H          -2.72784686996727     -1.79260809216284     -0.82384125822256
  H          -1.67798375021279     -1.53171047639496     -2.01734397512165
  H          -1.65943675340624     -3.87730579100239     -1.65293639085803
  H          -1.50498939033914     -3.57857719433802      0.08169651267744
  H           0.57930534519843     -2.75870125784987     -2.01040154759851
  H           0.66394927239341     -4.23410357306165     -1.04144722023133
  H           1.88557551732505     -2.23315279651904     -0.15887286149755
  H           0.85588221148603     -2.89520379044414      0.90640710250168
  C          -0.49735038215588      3.58711459757059     -2.28034867852069
  P          -1.81380785193995      2.34706024335037     -2.27294592246985
  O          -1.70197504947422      1.42495326295050     -1.03606949454518
  C          -1.67347564456770      1.39727689766448     -3.80618865357103
  C          -3.40209822146806      3.20697552071506     -2.28947704535973
  H          -0.56111898708745      4.20422856463653     -1.37842827233555
  H          -0.58114126508256      4.23790670911736     -3.15683715616314
  H           0.47418906221255      3.08231537961757     -2.30191819456406
  H          -1.71929597457527      2.05852678982628     -4.67770130916693
  H          -2.49575726841547      0.67758610746960     -3.87458140113900
  H          -0.71528450343939      0.86653754409322     -3.81060681677669
  H          -3.49876242871101      3.83067568745061     -1.39535901681733
  H          -4.21759281406491      2.47715210865752     -2.30194546008624
  H          -3.48321404861660      3.84549081934136     -3.17526567201536
  C          -0.30078198225180     -1.86835381699692      4.68428716601278
  C          -0.00668059303831     -1.32729973809566      3.43620740254867
  N          -0.97371518665114     -1.09486257600597      2.53258040198796
  C          -2.22808207633814     -1.40387293768741      2.89416911293372
  C          -2.50759491256463     -1.94565984912784      4.14575928908199
  N          -1.54763995914164     -2.17984317433030      5.04115920742186
  H           0.48874193874031     -2.05312789581419      5.41064128861447
  H           1.01396585426628     -1.06806005537513      3.15494889201773
  H          -3.02556337715100     -1.21274707661477      2.17716056478972
  H          -3.52862758854308     -2.19459646300099      4.42926994655839
  C          -0.02537021444664      2.41743227959508      2.98087967871299
  O          -0.65894393018394      2.05174534484239      1.72164346905976
  H          -0.68503134065836      2.18060883191121      3.82088155849047
  H           0.22400440090325      3.48167863858258      2.98091885641560
  H           0.89283869198040      1.83220881327910      3.04304274441401
  H          -1.41703598389765      2.62763238278813      1.56547031857606
