12
Coordinates from ORCA-job orca E -1708.714205330368
  Ce  -0.77391496514162      1.19857788608358      0.09616797215577
  C   1.55738968957315      0.43282728522307     -0.09551288039201
  N   2.59651170448219     -0.02352847297969      0.13092696734344
  O   -2.75396343262681     -1.57964732246057      0.97818337795129
  S   -3.08802868234690     -0.46791850382538      0.11361411136764
  O   -2.72238905492255      0.87625992089936      0.92680005474431
  O   -1.81082976553802     -0.29517724000767     -0.92120303646271
  N   -0.28598721912070     -0.11381605186289      2.21293043547110
  H   0.67820779396134     -0.42986880582125      2.25303628564678
  H   -0.89227654762724     -0.92939817657827      2.10711829283152
  H   -0.52315081439780      0.30569325714352      3.10541039179433
  Cl  -0.66496870629499      3.69349622418617     -0.15477197245153
