22
Coordinates from ORCA-job orca E -4570.862027941776
  Dy  -0.15822776607594      1.67902332587302      1.61257807464349
  Cl  1.21194955325343      1.21239455317961      3.64569924551206
  C   1.86763876975355      0.23130269833203     -0.51902744444946
  O   0.68014303536502      0.78392818483832     -0.01714401777735
  H   1.66698401542833     -0.70872020257448     -1.04532612453846
  H   2.58198866037905      0.01459571336566      0.28112898050400
  H   2.34756134445582      0.91272910846597     -1.22612407947976
  Br  -0.97071193479747      4.14056492807896      0.89717230869819
  C   -4.35828649993735     -0.24372202441570      0.04808644834258
  P   -2.59195060045687      0.03799997575875     -0.04301640111680
  O   -2.06587863452676      0.53193261223302      1.29657474365056
  C   -1.80759722374404     -1.50139466567732     -0.50928152187656
  C   -2.30279556096267      1.20844471750440     -1.36474803801357
  H   -4.57290652408238     -0.96374977469713      0.83587136293797
  H   -4.73148389615555     -0.62289003110133     -0.90280029693726
  H   -4.85611832104588      0.69624439989861      0.28163306438825
  H   -2.17027382524968     -1.84987119519124     -1.47563177041130
  H   -2.00636600852719     -2.25636490019507      0.24999506505543
  H   -0.73510051009922     -1.31485902422190     -0.56264280182310
  H   -2.76051849760275      0.85906461582902     -2.29014907879303
  H   -1.22585974897835      1.31380753840754     -1.50037179930230
  H   -2.71598982639298      2.17833944630925     -1.08797591921358
