15
Coordinates from ORCA-job orca E -1800.403392736287
  Lu  0.08274640396099      0.70140585029736      0.29549854374404
  N   2.64579020226352      0.09695118651335     -0.27011055400548
  O   3.76938685543200     -0.17468539304194     -0.53098637151436
  O   1.80477017269354      0.51156160306581     -1.14821519871302
  O   2.16101545659013      0.00423424962062      0.91684456894344
  C   -2.15797528817562     -1.70496185875051     -0.31368291269431
  O   -1.22077207152194     -0.69933535422824     -0.05641950356446
  H   -3.16626885911739     -1.28869785956573     -0.36154440035923
  H   -2.13775346623515     -2.46209844769587      0.47325867873412
  H   -1.94485147666460     -2.19635650888213     -1.26536289427055
  O   0.03011219467421      1.20607107096621      2.54896938243555
  H   0.72235447687797      1.05498428285947      3.19811108889883
  H   -0.29274708570943      2.11761668980614      2.63750734562275
  C   -0.73929908218292      2.90232303567607      0.40945296210977
  N   -1.00980843288528      3.78558745335936      1.10807926463285
