6
Coordinates from ORCA-job orca E -1122.659198601505
  Pr  0.32319569601779     -0.68526867567801      0.61458588892432
  H   0.92528358273058      0.46173808805840      2.57107512546298
  Si  -0.27496797872701      2.41462510975876     -1.83411913944871
  O   -0.89638776169658     -2.05062146308228      0.93217231987395
  H   2.21007649415950     -1.48184603243990     -0.53504891789540
  Sb  -2.28719003248429      1.34137297338303     -1.74865527691715
