29
Coordinates from ORCA-job orca E -1938.091992421795
  Gd  -0.22556286348085     -0.32433053039731     -0.06100292820217
  S   4.10930533960437     -1.99981609676260      1.43657695870591
  C   2.91301233768770     -1.41682449959095      0.54410331256988
  N   2.01672322426196     -0.98539496213412     -0.09701759242732
  C   0.10047052925017      0.70806955568704      5.12682360827969
  C   -0.86133003567387      1.32088481774260      4.34003689600325
  C   -0.90382461511747      1.02694106267851      2.98958599247701
  N   -0.04987722826173      0.16965252337172      2.41573880512165
  C   0.87811426513427     -0.42008893061937      3.17959628792320
  C   0.98722993541244     -0.17763371426216      4.53609907468461
  H   0.16006758411390      0.92012066663938      6.18563305894436
  H   -1.57059303410012      2.02026617047937      4.75717563834530
  H   -1.62992901361880      1.49020186628537      2.33382815701643
  H   1.56312694475229     -1.09932547006660      2.68790100944490
  H   1.75792074186078     -0.67481404005103      5.10617957441667
  O   -1.39428763467403     -2.04967800673433     -0.07775097563623
  H   -1.00252854554029     -2.92730854515153     -0.03773903244992
  C   1.30113646236421     -0.28486715500892     -4.59492615466409
  C   1.15017370751939     -0.45868064721396     -3.22853058624308
  N   0.11166036897598      0.07360494313294     -2.58083597438138
  C   -0.76448832968546      0.77863458409499     -3.29837498019254
  C   -0.59509837954243      0.94005048436167     -4.66560104355386
  N   0.43205016650497      0.41108723590090     -5.31936810962524
  H   2.14660145632814     -0.71858312869035     -5.11271911953748
  H   1.86594288398025     -1.01603107788425     -2.63898737871959
  H   -1.59526355944364      1.22447800485782     -2.76786362323956
  H   -1.30989887467925      1.51399474163636     -5.24046383608430
  C   -2.34235773330468      2.48500429200940     -0.35328478373188
  N   -1.65912344781726      1.54404351786752     -0.21654407548955
