49
Coordinates from ORCA-job orca E -2217.260743535668
  Gd  0.46103632755467      0.39007874941770      0.65800743388122
  N   0.87366818792212      0.02523954008988      3.04889414645044
  C   -0.15161978142225      0.01956862544974      3.90783976974364
  C   0.01438601551563     -0.16248422355239      5.26679809061856
  C   1.29954043654537     -0.35114897853434      5.74524361606860
  C   2.36393178532308     -0.36275248337617      4.85598087905098
  C   2.12420537389166     -0.17447269884361      3.50442146953314
  C   3.21015322137362     -0.21554473657084      2.48065796957589
  C   4.53909007469373     -0.42663767841560      2.81189935486371
  C   5.49077492857152     -0.49150619766095      1.80540187457181
  C   5.09625846894278     -0.34847141930005      0.48616625366918
  C   3.75617410487248     -0.13399024767494      0.23124350817869
  N   2.83432614879960     -0.06223586509314      1.19749822032544
  H   -1.13996744751055      0.15087730686617      3.48344701290628
  H   -0.84171643945743     -0.16000440307316      5.92442259744320
  H   1.47691401905930     -0.49760528942974      6.80152600583612
  H   3.36348275155415     -0.52535217683815      5.22601609663559
  H   4.84325141125872     -0.54569037802564      3.83941365181606
  H   6.52962309248106     -0.65803352440467      2.05369968015280
  H   5.80361186974761     -0.40223568195934     -0.32755188398173
  H   3.40441123381193     -0.02313631520278     -0.78841267982954
  C   -3.10930722298452     -5.18425775184252     -1.02755381217105
  C   -3.58338897272049     -4.34832807362410     -0.02271092838485
  C   -2.87140906157936     -3.21535965220784      0.32163593387536
  C   -1.68074719619565     -2.92622123591915     -0.34859830671356
  C   -1.20365812221397     -3.76524373122467     -1.35797627149720
  C   -1.92390091225263     -4.89573519341038     -1.69406491546321
  C   -0.92490365026933     -1.72976588743091      0.01224794802922
  O   -1.33471960056297     -0.93851402681284      0.93614147885909
  O   0.17444533057259     -1.43816636823342     -0.59083976405677
  H   -3.66962603783024     -6.07002284520513     -1.29366716515573
  H   -4.50619147590066     -4.58403221412456      0.48752253546529
  H   -3.22515980197842     -2.55441020615803      1.09963809451771
  H   -0.27983199091988     -3.52579634929533     -1.86441180012456
  H   -1.56587165106451     -5.55379346183784     -2.47267621467790
  C   -2.59196453963952      2.98067694255443     -1.47056237931176
  P   -0.88586863944272      3.39079609465946     -1.14182722934656
  O   -0.20455747741937      2.26337493723778     -0.34496358924649
  C   -0.83603325595520      4.91986723548488     -0.22334833136801
  C   -0.05651324472937      3.64173254270455     -2.70208384440034
  H   -3.07018979918422      3.78378719619593     -2.03112681393749
  H   -3.12628567452926      2.83989122206501     -0.53171784514228
  H   -2.64476914589501      2.06310469218229     -2.05565507068883
  H   -1.31389996889979      5.71525657492256     -0.79507268330272
  H   0.19857779976635      5.19829757186749     -0.02732146420143
  H   -1.36245683580055      4.80079784623290      0.72269878536022
  H   -0.54417177529057      4.44088993039395     -3.26014653531125
  H   -0.09415675317317      2.72687076001069     -3.29227843040175
  H   0.98272389256359      3.91754152694687     -2.52789444871326
