32
Coordinates from ORCA-job orca E -2603.376744070061
  Tm  1.02026407361540      0.63112148171372     -0.90123273620737
  O   2.65341293454277      0.81815260479742      0.29275845746356
  H   3.41695729377397      0.98145380987847      0.83362258322313
  C   -2.78487256121241      1.60186448523332      1.56973916347343
  C   -1.88365180840142      1.23659282051853      0.45264271918225
  N   -0.55513222366698      0.99529226676293      0.83855495966424
  C   -0.15370551111131      1.65526814395764      1.94814622767851
  C   -1.00747781184534      2.26666231336993      2.81670398588420
  N   -2.36874211427297      2.13402467479976      2.66327911763335
  H   -3.85101762952724      1.42810550776701      1.44975200825800
  H   -2.28115191982369      0.43518659932346     -0.16565378478501
  H   0.91153633794598      1.62512406418964      2.15046222741725
  H   -0.65515286605323      2.75620347177125      3.71287818219669
  C   -1.02239877811063     -2.47099849550770      0.92498587195768
  P   0.04054335431165     -2.08421845848466     -0.51052494726035
  C   -1.02651111605480     -2.51919286841476     -1.92397131900146
  C   1.23071829565590     -3.46938268369107     -0.49329616342129
  H   -1.41289169525388     -3.48939725694332      0.87661167870588
  H   -1.84920851491110     -1.76260463522715      0.96207944727657
  H   -0.44851835713501     -2.34420243291866      1.84268500606166
  H   -1.45350743461863     -3.51813396120807     -1.81542124202194
  H   -0.42317685745252     -2.46766739678352     -2.82974253620415
  H   -1.81917368946282     -1.77686128894560     -2.01295262238515
  H   0.72282868850152     -4.43575319209566     -0.49024624162224
  H   1.86469706780710     -3.39263545942916      0.38995072171020
  H   1.86176921012347     -3.38747649091876     -1.37767675445717
  O   0.29488076581439      2.67922079023883     -1.53944068032109
  S   -1.14401696826413      2.30835334875970     -1.90652514329202
  O   -1.97322552008913      2.44545081476558     -0.54964779135918
  O   -1.04597482140631      0.80618234814626     -2.11580324888061
  C   2.30593991260308     -1.42187292139469     -3.39983462241619
  N   1.89626026397841     -0.62506200403056     -2.65068252415141
