6
Coordinates from ORCA-job orca E -13758.393392791839
  Md  -0.06342701033976     -0.19593818003807     -0.02721190413280
  Br  0.70792068163999      0.38189274258248      2.54500033190937
  Br  -0.04067084847995      0.95327464465594     -2.52082096697136
  Br  -1.35358561055714     -2.42023042970521     -0.10516794823229
  Br  2.61181263871852     -0.56660274565423      0.53044843609654
  Br  -1.86203985098166      1.84760396815908     -0.42223794866947
