4
Coordinates from ORCA-job orca E -739.595581955122
  Np  0.31848139727206     -0.09871782549425     -0.46961678121377
  O   -1.03984938480730     -0.73096411651436     -1.37979681972083
  O   -0.51893440418825      1.40663099543383      0.07642069134414
  O   1.83679239172349      0.24494094657477      0.33639290959046
