43
Coordinates from ORCA-job orca E -2420.128136817844
  Tb  0.35999469449580      0.10209751190219     -0.08666678381117
  C   1.08486497036609      2.57926302241234      1.02088062183178
  O   1.47917513341970      3.42215680272820      1.64162317532194
  O   0.78788759101490     -1.84243621088964      1.27902830765223
  S   2.24051221376974     -1.51581829496325      0.87256779461923
  O   2.26166604753907      0.01891974992567      1.19160645511303
  O   2.06575645409087     -1.46023716191818     -0.66932242214388
  N   1.71973769892592      1.00584684957258     -2.03540849607248
  H   1.32244014493281      1.01276385876541     -2.96903252178035
  H   2.38684479057863      0.23404713239245     -1.99377289105773
  H   2.25814070753437      1.85998886126734     -1.93864689465172
  C   -0.05590023798821     -3.95400273154637     -1.07131637610276
  C   -0.64045376769640     -2.63645946324894     -1.20766841053804
  N   -1.07471256287585     -1.57537905929912     -1.30651759945841
  H   1.01524256653701     -3.85240342964479     -1.24124289860579
  H   -0.49719208574130     -4.63702271244574     -1.79359701387353
  H   -0.22447509565656     -4.30731264960668     -0.05650654957606
  C   -3.53172700355725      3.24916257620801     -1.91264580495066
  C   -3.78899939442418      2.04881179471013     -1.27132880924411
  C   -2.72253855265092      1.28482591191464     -0.83434636132127
  N   -1.44770206904923      1.65482264259492     -1.00543699081650
  C   -1.21068322280796      2.81641493230649     -1.62593981177668
  C   -2.21433047222368      3.64188618972824     -2.09351920112212
  H   -4.34336925004429      3.86975759418625     -2.26598821404900
  H   -4.79885301649495      1.70274515583225     -1.10881509704266
  H   -2.88761043370355      0.34186587512070     -0.32998689669741
  H   -0.17130117586345      3.09500901647111     -1.74940780943095
  H   -1.96469191594415      4.56981808167711     -2.58621052563465
  C   0.50621497235748     -0.08717039284323      6.53172015373407
  C   1.23010046002819      0.22983549859344      5.38974021455973
  C   0.63519802000849      0.14526219273304      4.14280833738331
  C   -0.68772774358182     -0.27981698889592      4.04584019477605
  C   -1.41387894005983     -0.60561156008226      5.19160142970947
  C   -0.81608407441971     -0.49995422801800      6.43522804780335
  C   -1.30454963437771     -0.38059589288659      2.71355979144217
  O   -1.02562253441260      0.36161332302026      1.77269468889742
  O   -2.23582915404979     -1.29517501353157      2.50918466543496
  H   0.97443594586442     -0.01261793348661      7.50352085859916
  H   2.26286262414934      0.53831644216344      5.47027918552207
  H   1.20366839286490      0.35487643226183      3.24655851206436
  H   -2.45619590391555     -0.89578650349116      5.12810573482038
  H   -1.38039796741025     -0.73299273888880      7.32677015286009
  H   -2.29721721952837     -1.88931448280123      3.26750605761280
