5
Coordinates from ORCA-job orca E -2623.127654212978
  Es  0.08966985390379     -1.25194720526360      0.00284605002785
  Cl  1.45089689377277      0.87346860768439      0.63029322112443
  Cl  1.06499137423260     -3.36165312425268      0.75173650917379
  Cl  -1.02204706368164     -1.20882014344426     -2.17156748843365
  Cl  -0.88902105822751      0.30191186527615      1.85875170810757
