23
Coordinates from ORCA-job orca E -3834.647983201840
  Gd  0.34580371220231     -0.31970429631615      1.18533227363799
  C   1.65413516576392      1.63640217975099     -1.03347250388779
  C   1.48440989317088      2.45971018318361      0.25446142634835
  O   1.74606996529525      3.63942279991752      0.23876597272080
  O   1.02348171636674      1.78152452797203      1.26704614150561
  N   1.98601167656705      0.22079506388859     -0.74732516016848
  H   2.39220167724382      2.12442058049158     -1.66728239744070
  H   0.69254647043669      1.65113339958772     -1.54833614951697
  H   2.97499247160802      0.14230696212309     -0.53995553785765
  H   1.81184029405014     -0.34513685770386     -1.56923447018494
  Br  -0.87453647359478     -1.49337900495102      3.37048672468486
  C   -2.60938855188432     -2.27325057509999     -0.34403938498533
  C   -2.37727337757069     -0.77372073178996     -0.35433508368207
  O   -1.00050618263874     -0.45817789274292     -0.39940822498210
  H   -3.67524337205761     -2.50312309908999     -0.36899397872469
  H   -2.19418487032249     -2.71439608772104      0.56433254105847
  H   -2.13750649618649     -2.73432877002247     -1.21282338920278
  H   -2.85152614954718     -0.32213538853399      0.52527047497817
  H   -2.85053615657326     -0.31986854726940     -1.23106849216641
  N   1.38059098870484     -2.70410867953233      1.01137303101492
  H   0.92295713934072     -3.20915138345865      0.25984065598352
  H   1.01819941386310     -3.08433496908750      1.88292406285228
  H   2.36756104576206     -2.92629941359579      0.96464146801496
