6
Coordinates from ORCA-job orca E -1175.199441790782
  Yb  0.62639704243068     -0.02423851020465     -0.03687844084270
  Li  1.11081393777166     -0.10363308718280      2.99960781889465
  Li  -0.87239780399999      0.07786998311699     -2.62773071137227
  H   -1.49380547518591     -0.35670377914948     -0.96578125365461
  H   2.07745550039336     -0.12913592150399      1.58656794296327
  H   -1.44845320140979      0.53584131492394     -0.95577535598834
