5
Coordinates from ORCA-job orca E -972.848572280412
  Cf  -0.22897303596970     -1.81256264700015     -0.19751639326563
  Be  1.00863384450473      1.13068377116527      1.16884904150581
  O   0.53991021712198     -2.86841744762537      0.97549024540757
  O   -1.10542703588502     -1.02140954126467     -1.49664989682090
  O   0.48034601022800     -0.07533413527508      0.62188700317316
