4
Coordinates from ORCA-job orca E -1377.640369425629
  Pu  -0.33356360598257      0.37337203163328     -0.25699343909638
  Si  -0.98746177603483     -1.71868876603120     -1.97800559181314
  O   -0.45541414440771      2.06252673711421      0.55354535215016
  Cl  2.37292952642510      0.10467999728371      0.24485367875936
