25
Coordinates from ORCA-job orca E -1037.126718555652
  Sm  -1.40619500086958     -0.24167393604500     -0.24605024773522
  N   0.24902208264087     -1.00338244994033      1.45182733595101
  C   1.23207698578318     -0.11657878267629      2.22659966645245
  C   2.67186173380651     -0.15418201122402      1.72837069711534
  N   3.05927535057580      0.47718534165640      0.48110396426017
  C   2.67515491353569      1.72214110164735     -0.15629366230665
  C   1.24081508007071      2.23452184428514     -0.10829345698733
  N   0.24312846963040      1.47124887766614     -0.98924269724789
  H   -0.30921994501216     -1.45667787173737      2.18746583672665
  H   0.78257061415065     -1.80397093848311      1.09198829223547
  H   1.28022476834573     -0.50150897552704      3.24618304342047
  H   0.82872456143700      0.88799540453418      2.30398326234806
  H   3.06635848374804     -1.17538004012764      1.69977548298307
  H   3.29409843385891      0.34344731129977      2.50162488576838
  H   3.95752538216618      0.12406503688948      0.13056950107530
  H   3.06086622342815      1.68323346405427     -1.18066652959686
  H   3.30954110664500      2.49327174914871      0.32944764807809
  H   1.29674686407121      3.25353961055861     -0.49377874995650
  H   0.84489781432030      2.31632978371614      0.89881242363137
  H   0.76526885892123      1.12477871641156     -1.80324892995359
  H   -0.32098113711358      2.21449100543023     -1.42232288030750
  N   -3.50593245800825      0.63137631590421      0.63428336534497
  H   -3.46198898611216      1.21565189029297      1.47992810452575
  H   -4.18624358885173     -0.09895764949547      0.89249083709772
  H   -4.04069661116813      1.21543520176105     -0.02515719292278
