4
Coordinates from ORCA-job orca E -1065.246845452452
  Gd  -0.00972114617532     -0.01685031924169      0.03259871081009
  F   -0.69471015764717     -1.00600663090492     -1.58047336615391
  F   -0.70170521894546      1.87344465338706      0.05404752148295
  F   2.00262652276794     -0.02869770324043      0.05722713386088
