42
Coordinates from ORCA-job orca E -2009.667919232395
  Eu         -0.93944694734661      0.03035503818527     -0.19851000495140
  N           0.51371904232261     -2.17635370676052      0.29314568771013
  C           0.53762206483662     -3.23466618321719     -0.74121495229438
  C          -0.74186809649155     -3.17018313278147     -1.56262814413909
  N          -0.95374234690331     -1.81576135505995     -2.10013357115316
  C          -0.12756784623958     -1.46443678389629     -3.27488623237820
  C           1.08827545234833     -0.60774324319524     -2.92960770946781
  N           0.66875700269855      0.59458899654733     -2.17907174850856
  H           1.45317261012244     -1.91956623201918      0.57829440568299
  H           0.04918625709136     -2.51473554401312      1.13209575420803
  H           0.64630146249011     -4.24254972114146     -0.31550457365385
  H           1.40900350279705     -3.07219492428532     -1.38562775222829
  H          -1.59863963046088     -3.40429829460771     -0.91968053921575
  H          -0.70274358119781     -3.93028737514002     -2.36095953776819
  H          -1.93322055954177     -1.69422335621362     -2.35623332606466
  H          -0.76351452562749     -0.89349315627235     -3.96295847549551
  H           0.21138711011045     -2.36717100727226     -3.80717310345052
  H           1.60514822241729     -0.35884451525195     -3.86974746244524
  H           1.80167775733734     -1.16271596641296     -2.30774772737639
  H          -0.02167389536677      1.11618734894254     -2.72691018983508
  H           1.46116901772505      1.21293024925651     -2.03746965398128
  N          -1.21517485353428      2.13170780280364      0.71150114447514
  N          -0.87848090131273      2.95797718469923      1.50349867075627
  N          -0.55459745536884      3.76753120428543      2.26091505401283
  C           2.09766992025978      1.71473761333568      0.68525561226323
  C           2.65149387319724      2.29082162635485      1.99047459503233
  C           2.54987885657027      1.10649862273092      2.95749298080886
  C           1.25288393804236      0.45979398139273      2.51123498665662
  O           1.27848705267443      0.56363080286991      1.05419831775309
  H           2.89505910358616      1.34343233771047      0.02731687882480
  H           1.47291529630795      2.43401165285359      0.14312904940457
  H           2.01853717615304      3.11323858251321      2.33627367099281
  H           3.67324035112047      2.66065897661069      1.87093219584122
  H           2.51424546585774      1.41834699310700      4.00458244225634
  H           3.39017796400628      0.41419960905871      2.82563440841323
  H           0.37604916361201      0.99316757505108      2.89861602849039
  H           1.15840979768319     -0.59978465731058      2.76451989558226
  I          -2.88959765111944      0.99572390269692     -2.46238416854854
  N          -2.40137794106557     -1.58708244022591      1.71689572012082
  O          -2.99000304860669     -2.29709480028318      2.49841900708189
  O          -1.47446615781740     -0.77687827096517      2.08775909404076
  O          -2.64433862646748     -1.60364174858016      0.45525851794728
