63
Coordinates from ORCA-job orca E -2661.404115458438
  Ce  -0.29549030327746      0.35663992623199      0.36291851807602
  N   1.50805306066365     -0.08612829852542     -1.42926250901460
  C   1.70573726975253      0.76317119658427     -2.44463726033605
  C   2.20652222035999      0.37965496251782     -3.67152842404246
  C   2.50352975261909     -0.95813736895333     -3.86959913991077
  C   2.35123708986802     -1.83874227918790     -2.81301868689445
  C   1.87505849887380     -1.37021551253641     -1.59935036017713
  C   1.78263955268183     -2.23261233702528     -0.39943671592766
  C   2.41832247149750     -3.46079068043024     -0.32580577451746
  C   2.36903297543723     -4.18167997029770      0.85670769605824
  C   1.69268697783174     -3.64790706109395      1.93914291909235
  C   1.07507935333783     -2.42108741234513      1.79384023639305
  N   1.10743579484558     -1.72406397129156      0.64911769848818
  H   1.45900129428777      1.79700033478977     -2.26019202527533
  H   2.34766880021023      1.11274479996217     -4.45166373543956
  H   2.86286512676977     -1.31023783742266     -4.82624802367685
  H   2.59111990129223     -2.88206142757125     -2.94326525778975
  H   2.97171111638692     -3.84550582091547     -1.16764729011891
  H   2.86621661674977     -5.13878226919704      0.93073030902444
  H   1.64164428490877     -4.16417251966353      2.88617299103033
  H   0.52916917591076     -1.97911469716417      2.61408683898371
  C   -1.55007014406509      2.24027976736713     -2.53865556790723
  O   -0.74525760889692      2.12788091629123     -1.32943339569187
  H   -0.90056027471962      2.43458400456282     -3.38879431747232
  H   -2.26908087996820      3.04829943666292     -2.42391037718602
  H   -2.04695725998731      1.28881810684387     -2.68434734396128
  H   -0.18955224619163      2.90999097481771     -1.25602601417513
  C   3.41501688935341      4.19788562617661      0.92260784253750
  C   2.08703006467490      4.58416228634011      0.81762971035176
  C   1.12998885071678      3.61174883892022      0.60771704961345
  N   1.42480163445615      2.30731570537477      0.48201853829476
  C   2.71057333846408      1.94452940253297      0.59974328013733
  C   3.72883148776856      2.85204904281202      0.81693996273623
  H   4.18961124074132      4.93256293132254      1.09255309944219
  H   1.79077863428380      5.61861177908792      0.90945680870526
  H   0.08075216424995      3.88161764486022      0.57053621663572
  H   2.92541048843239      0.88686279768144      0.52648512717720
  H   4.74670081293104      2.50271308992756      0.90666275605628
  N   -2.82166189227396      0.88278606280847      0.10357999721133
  H   -3.19607821047491      0.28822772964264     -0.63128535910706
  H   -3.04434713340629      1.84267993746409     -0.13840582621298
  H   -3.33549092295569      0.66758547443298      0.95461737028260
  C   -1.72531353705869     -1.19930382827325      5.16387468176781
  O   -1.48678779748083     -1.39142466803236      3.75060445546274
  P   -2.72997612237387     -1.17952775281875      2.75208203497552
  O   -3.47329734014570     -2.58188488231868      2.92133462573694
  C   -4.89525935356882     -2.70510779668133      2.69497737452142
  O   -1.78078382224923     -1.46020003615706      1.34814668520845
  C   -1.80719540487406     -2.82122891922657      0.80569964239116
  H   -0.75453266848283     -1.05853064334444      5.62712320227407
  H   -2.21139638617846     -2.07905411794269      5.57811055546237
  H   -2.34289370914751     -0.31641842978118      5.33430394978795
  H   -5.30078313420556     -3.29260577254830      3.51156361491447
  H   -5.06139711250229     -3.22085370513647      1.75265795175681
  H   -5.37284813838404     -1.72578163887541      2.67423101243010
  H   -1.11782322750426     -2.85600010456348     -0.02747133216751
  H   -2.80680940472001     -3.04247897862763      0.44371705987023
  H   -1.52215908513177     -3.52838997760206      1.57863526330214
  S   -1.28275345235405      2.02413769951147      2.56190229076454
  C   0.05458769072502      1.13369491284574      2.84696468093153
  N   0.95413373549323      0.40125321451288      2.67140764431585
  C   -1.20254702702859     -0.84671660226642     -1.55230238888912
  N   -1.70854476696800     -1.33934128506912     -2.46861456631079
