6
Coordinates from ORCA-job orca E -2647.197882113849
  Yb  -0.24990923324436      0.16462391137997     -0.05120475736605
  I   1.23451504010035      0.74053288911479      2.55825847774203
  I   -0.03039654996154      1.68701346863488     -2.63837763474516
  I   -0.61484554793220     -2.84762999673157      0.31288225168917
  I   2.34054935962636     -1.54742762475279      0.55334498506243
  I   -2.67990306858863      1.80288735235471     -0.73489332238241
